@<TRIPOS>MOLECULE
L3024_0_out.pdbqt
 33 35 0 0 0
SMALL
GASTEIGER

@<TRIPOS>ATOM
      1 C27         7.3830  -21.5090   -9.6560 C.ar    1  MOL1       -0.0240
      2 C28         6.6480  -22.2780  -10.5770 C.ar    1  MOL1       -0.0570
      3 C29         5.2500  -22.2970  -10.5250 C.ar    1  MOL1       -0.0610
      4 C30         4.5730  -21.5510   -9.5570 C.ar    1  MOL1       -0.0480
      5 C31         5.2920  -20.7800   -8.6370 C.ar    1  MOL1        0.0180
      6 Br32        4.3640  -19.7410   -7.3250 Br      1  MOL1       -0.0510
      7 C33         6.6900  -20.7620   -8.6820 C.ar    1  MOL1       -0.0430
      8  C6         8.8960  -21.5510   -9.6720 C.3     1  MOL1        0.0630
      9  C5         9.3880  -22.9590   -9.2910 C.3     1  MOL1        0.0510
     10  C1        11.7310  -25.3330  -11.3030 C.3     1  MOL1        0.0060
     11  N2        11.0500  -24.6570  -10.2080 N.am    1  MOL1       -0.3590
     12  C3        10.0810  -23.6300  -10.4420 C.2     1  MOL1        0.2220
     13  O4         9.8000  -23.2820  -11.6210 O.2     1  MOL1       -0.2750
     14  N7         9.4420  -20.5470   -8.7520 N.am    1  MOL1       -0.3460
     15  C8        10.2450  -19.4520   -9.1980 C.2     1  MOL1        0.2580
     16  O9        10.5200  -19.3230  -10.4200 O.2     1  MOL1       -0.2710
     17 C10        10.7560  -18.4390   -8.2190 C.3     1  MOL1        0.1670
     18 O11        11.7560  -19.0140   -7.3810 O.3     1  MOL1       -0.4800
     19 C12        13.0170  -19.3690   -7.8680 C.ar    1  MOL1        0.1660
     20 C13        13.9440  -18.3850   -8.2810 C.ar    1  MOL1        0.0120
     21 C21        15.2280  -18.7820   -8.6890 C.ar    1  MOL1       -0.0540
     22 C22        15.5710  -20.1330   -8.7330 C.ar    1  MOL1       -0.0580
     23 C23        14.6380  -21.1050   -8.3730 C.ar    1  MOL1       -0.0160
     24 C24        13.3520  -20.7300   -7.9420 C.ar    1  MOL1        0.1610
     25 C14        13.5910  -16.9140   -8.2980 C.3     1  MOL1        0.0280
     26 N15        14.4760  -16.1600   -7.3870 N.3     1  MOL1       -0.2870
     27 C16        14.2330  -16.5150   -5.9790 C.3     1  MOL1        0.0640
     28 C17        13.7100  -15.1320   -5.6440 C.3     1  MOL1        0.2720
     29 F18        14.5230  -14.4260   -4.7750 F       1  MOL1       -0.2040
     30 F19        12.3690  -15.1110   -5.3000 F       1  MOL1       -0.2040
     31 C20        13.9620  -14.8090   -7.1040 C.3     1  MOL1        0.0640
     32 O25        12.3850  -21.6760   -7.5720 O.3     1  MOL1       -0.4930
     33 C26        12.6710  -23.0270   -7.2230 C.3     1  MOL1        0.0780
@<TRIPOS>BOND
     1    13    12    2
     2    10    11    1
     3     2     3   ar
     4     2     1   ar
     5     3     4   ar
     6    12    11   am
     7    12     9    1
     8    16    15    2
     9     8     1    1
    10     8     9    1
    11     8    14    1
    12     1     7   ar
    13     4     5   ar
    14    15    14   am
    15    15    17    1
    16    22    21   ar
    17    22    23   ar
    18    21    20   ar
    19     7     5   ar
    20     5     6    1
    21    23    24   ar
    22    25    20    1
    23    25    26    1
    24    20    19   ar
    25    17    18    1
    26    24    19   ar
    27    24    32    1
    28    19    18    1
    29    32    33    1
    30    26    31    1
    31    26    27    1
    32    31    28    1
    33    27    28    1
    34    28    30    1
    35    28    29    1
