@<TRIPOS>MOLECULE
L3024_0_out.pdbqt
 33 35 0 0 0
SMALL
GASTEIGER

@<TRIPOS>ATOM
      1 C27         9.9900  -18.3100   -8.1650 C.ar    1  MOL1       -0.0240
      2 C28         9.6250  -16.9520   -8.1990 C.ar    1  MOL1       -0.0570
      3 C29         8.2850  -16.5840   -8.3650 C.ar    1  MOL1       -0.0610
      4 C30         7.3000  -17.5650   -8.5000 C.ar    1  MOL1       -0.0480
      5 C31         7.6490  -18.9200   -8.4650 C.ar    1  MOL1        0.0180
      6 Br32        6.2960  -20.2630   -8.6270 Br      1  MOL1       -0.0510
      7 C33         8.9880  -19.2920   -8.3040 C.ar    1  MOL1       -0.0430
      8  C6        11.4490  -18.6990   -8.0580 C.3     1  MOL1        0.0630
      9  C5        11.5720  -20.1500   -7.5580 C.3     1  MOL1        0.0510
     10  C1        14.8770  -21.5490   -6.0440 C.3     1  MOL1        0.0060
     11  N2        13.4930  -21.1270   -6.2000 N.am    1  MOL1       -0.3590
     12  C3        13.0080  -20.5660   -7.4250 C.2     1  MOL1        0.2220
     13  O4        13.7880  -20.4210   -8.4060 O.2     1  MOL1       -0.2750
     14  N7        12.1550  -17.7810   -7.1580 N.am    1  MOL1       -0.3460
     15  C8        13.2130  -16.9300   -7.6030 C.2     1  MOL1        0.2580
     16  O9        13.5840  -16.9530   -8.8060 O.2     1  MOL1       -0.2710
     17 C10        13.8840  -15.9910   -6.6460 C.3     1  MOL1        0.1670
     18 O11        14.4860  -16.7150   -5.5750 O.3     1  MOL1       -0.4800
     19 C12        15.8170  -16.5150   -5.2010 C.ar    1  MOL1        0.1660
     20 C13        16.8630  -17.2630   -5.7900 C.ar    1  MOL1        0.0120
     21 C21        18.1930  -16.9740   -5.4420 C.ar    1  MOL1       -0.0540
     22 C22        18.4790  -15.9940   -4.4910 C.ar    1  MOL1       -0.0580
     23 C23        17.4430  -15.2920   -3.8740 C.ar    1  MOL1       -0.0160
     24 C24        16.1040  -15.5500   -4.2220 C.ar    1  MOL1        0.1610
     25 C14        16.5880  -18.3690   -6.7850 C.3     1  MOL1        0.0280
     26 N15        17.4370  -18.2070   -7.9830 N.3     1  MOL1       -0.2870
     27 C16        16.6770  -18.4480   -9.2210 C.3     1  MOL1        0.0640
     28 C17        17.4780  -19.6890   -9.5590 C.3     1  MOL1        0.2720
     29 F18        18.2610  -19.5540  -10.6930 F       1  MOL1       -0.2040
     30 F19        16.7360  -20.8580   -9.5250 F       1  MOL1       -0.2040
     31 C20        18.2290  -19.4150   -8.2700 C.3     1  MOL1        0.0640
     32 O25        15.0340  -14.8670   -3.6250 O.3     1  MOL1       -0.4930
     33 C26        14.4080  -15.2580   -2.4070 C.3     1  MOL1        0.0780
@<TRIPOS>BOND
     1    29    28    1
     2    28    30    1
     3    28    27    1
     4    28    31    1
     5    27    26    1
     6    16    15    2
     7     6     5    1
     8     4     5   ar
     9     4     3   ar
    10     5     7   ar
    11    13    12    2
    12     3     2   ar
    13     7     1   ar
    14    31    26    1
    15     2     1   ar
    16     1     8    1
    17     8     9    1
    18     8    14    1
    19    26    25    1
    20    15    14   am
    21    15    17    1
    22     9    12    1
    23    12    11   am
    24    25    20    1
    25    17    18    1
    26    11    10    1
    27    20    21   ar
    28    20    19   ar
    29    18    19    1
    30    21    22   ar
    31    19    24   ar
    32    22    23   ar
    33    24    23   ar
    34    24    32    1
    35    32    33    1
