@<TRIPOS>MOLECULE
L3024_0_out.pdbqt
 33 35 0 0 0
SMALL
GASTEIGER

@<TRIPOS>ATOM
      1 C27        10.2890  -17.9420   -8.4270 C.ar    1  MOL1       -0.0240
      2 C28         9.8110  -16.8450   -7.6860 C.ar    1  MOL1       -0.0570
      3 C29         8.6700  -16.1520   -8.1050 C.ar    1  MOL1       -0.0610
      4 C30         7.9970  -16.5440   -9.2650 C.ar    1  MOL1       -0.0480
      5 C31         8.4610  -17.6350  -10.0090 C.ar    1  MOL1        0.0180
      6 Br32        7.5260  -18.1850  -11.5850 Br      1  MOL1       -0.0510
      7 C33         9.6040  -18.3280   -9.5970 C.ar    1  MOL1       -0.0430
      8  C6        11.5640  -18.6410   -8.0080 C.3     1  MOL1        0.0630
      9  C5        11.2300  -19.9240   -7.2270 C.3     1  MOL1        0.0510
     10  C1        14.6750  -21.7070   -7.5860 C.3     1  MOL1        0.0060
     11  N2        13.4590  -20.9660   -7.8880 N.am    1  MOL1       -0.3590
     12  C3        12.4690  -20.7010   -6.8870 C.2     1  MOL1        0.2220
     13  O4        12.6350  -21.1170   -5.7080 O.2     1  MOL1       -0.2750
     14  N7        12.3920  -17.7430   -7.1950 N.am    1  MOL1       -0.3460
     15  C8        13.5330  -17.0620   -7.7210 C.2     1  MOL1        0.2580
     16  O9        13.8720  -17.2260   -8.9230 O.2     1  MOL1       -0.2710
     17 C10        14.3300  -16.1350   -6.8530 C.3     1  MOL1        0.1670
     18 O11        15.6960  -16.1220   -7.2590 O.3     1  MOL1       -0.4800
     19 C12        16.6690  -16.8900   -6.6120 C.ar    1  MOL1        0.1660
     20 C13        17.1600  -16.5250   -5.3370 C.ar    1  MOL1        0.0120
     21 C21        18.0790  -17.3680   -4.6900 C.ar    1  MOL1       -0.0540
     22 C22        18.5380  -18.5270   -5.3150 C.ar    1  MOL1       -0.0580
     23 C23        18.0900  -18.8590   -6.5940 C.ar    1  MOL1       -0.0160
     24 C24        17.1550  -18.0410   -7.2540 C.ar    1  MOL1        0.1610
     25 C14        16.7250  -15.2490   -4.6520 C.3     1  MOL1        0.0280
     26 N15        16.2640  -15.5330   -3.2780 N.3     1  MOL1       -0.2870
     27 C16        15.1410  -16.4870   -3.2700 C.3     1  MOL1        0.0640
     28 C17        14.1690  -15.4520   -2.7390 C.3     1  MOL1        0.2720
     29 F18        13.7150  -15.7210   -1.4600 F       1  MOL1       -0.2040
     30 F19        13.1650  -15.1200   -3.6330 F       1  MOL1       -0.2040
     31 C20        15.3460  -14.4970   -2.7740 C.3     1  MOL1        0.0640
     32 O25        16.6800  -18.3380   -8.5390 O.3     1  MOL1       -0.4930
     33 C26        17.4120  -19.0660   -9.5200 C.3     1  MOL1        0.0780
@<TRIPOS>BOND
     1     6     5    1
     2     5     7   ar
     3     5     4   ar
     4     7     1   ar
     5    33    32    1
     6     4     3   ar
     7    16    15    2
     8    32    24    1
     9     1     8    1
    10     1     2   ar
    11     3     2   ar
    12     8     9    1
    13     8    14    1
    14    11    10    1
    15    11    12   am
    16    15    14   am
    17    15    17    1
    18    18    17    1
    19    18    19    1
    20    24    19   ar
    21    24    23   ar
    22     9    12    1
    23    12    13    2
    24    19    20   ar
    25    23    22   ar
    26    20    21   ar
    27    20    25    1
    28    22    21   ar
    29    25    26    1
    30    30    28    1
    31    26    27    1
    32    26    31    1
    33    27    28    1
    34    31    28    1
    35    28    29    1
