@<TRIPOS>MOLECULE
L3024_0_out.pdbqt
 33 35 0 0 0
SMALL
GASTEIGER

@<TRIPOS>ATOM
      1 C27         6.8210  -20.4590   -8.8500 C.ar    1  MOL1       -0.0240
      2 C28         5.8040  -21.3440   -8.4520 C.ar    1  MOL1       -0.0570
      3 C29         4.6890  -20.8720   -7.7500 C.ar    1  MOL1       -0.0610
      4 C30         4.5810  -19.5140   -7.4390 C.ar    1  MOL1       -0.0480
      5 C31         5.5850  -18.6220   -7.8320 C.ar    1  MOL1        0.0180
      6 Br32        5.4250  -16.7590   -7.4240 Br      1  MOL1       -0.0510
      7 C33         6.7030  -19.0910   -8.5290 C.ar    1  MOL1       -0.0430
      8  C6         8.0570  -20.9890   -9.5450 C.3     1  MOL1        0.0630
      9  C5         8.1300  -22.5190   -9.3970 C.3     1  MOL1        0.0510
     10  C1        10.9040  -24.8460  -10.8330 C.3     1  MOL1        0.0060
     11  N2         9.9280  -24.2390   -9.9390 N.am    1  MOL1       -0.3590
     12  C3         9.1350  -23.1160  -10.3390 C.2     1  MOL1        0.2220
     13  O4         9.2750  -22.6210  -11.4900 O.2     1  MOL1       -0.2750
     14  N7         9.2610  -20.3590   -8.9920 N.am    1  MOL1       -0.3460
     15  C8        10.1320  -19.5430   -9.7780 C.2     1  MOL1        0.2580
     16  O9         9.8890  -19.3460  -10.9980 O.2     1  MOL1       -0.2710
     17 C10        11.3360  -18.9010   -9.1560 C.3     1  MOL1        0.1670
     18 O11        11.7970  -19.6720   -8.0490 O.3     1  MOL1       -0.4800
     19 C12        13.1260  -20.0870   -7.9370 C.ar    1  MOL1        0.1660
     20 C13        14.1830  -19.1490   -7.8800 C.ar    1  MOL1        0.0120
     21 C21        15.4960  -19.6080   -7.6870 C.ar    1  MOL1       -0.0540
     22 C22        15.7640  -20.9740   -7.6030 C.ar    1  MOL1       -0.0580
     23 C23        14.7270  -21.9000   -7.7100 C.ar    1  MOL1       -0.0160
     24 C24        13.4000  -21.4640   -7.8830 C.ar    1  MOL1        0.1610
     25 C14        13.9370  -17.6630   -8.0210 C.3     1  MOL1        0.0280
     26 N15        13.7740  -17.0390   -6.6930 N.3     1  MOL1       -0.2870
     27 C16        12.8440  -15.8980   -6.7410 C.3     1  MOL1        0.0640
     28 C17        13.9360  -14.9000   -6.4110 C.3     1  MOL1        0.2720
     29 F18        13.7800  -14.2940   -5.1760 F       1  MOL1       -0.2040
     30 F19        14.2110  -14.0140   -7.4400 F       1  MOL1       -0.2040
     31 C20        14.8640  -16.0980   -6.3830 C.3     1  MOL1        0.0640
     32 O25        12.3290  -22.3620   -7.9960 O.3     1  MOL1       -0.4930
     33 C26        12.2750  -23.6360   -7.3630 C.3     1  MOL1        0.0780
@<TRIPOS>BOND
     1    13    12    2
     2    16    15    2
     3    10    11    1
     4    12    11   am
     5    12     9    1
     6    15    17    1
     7    15    14   am
     8     8     9    1
     9     8    14    1
    10     8     1    1
    11    17    18    1
    12     1     7   ar
    13     1     2   ar
    14     7     5   ar
    15     2     3   ar
    16    18    19    1
    17    25    20    1
    18    25    26    1
    19    32    24    1
    20    32    33    1
    21    19    24   ar
    22    19    20   ar
    23    24    23   ar
    24    20    21   ar
    25     5     4   ar
    26     5     6    1
    27     3     4   ar
    28    23    22   ar
    29    21    22   ar
    30    30    28    1
    31    27    26    1
    32    27    28    1
    33    26    31    1
    34    28    31    1
    35    28    29    1
