@<TRIPOS>MOLECULE
L3024_0_out.pdbqt
 33 35 0 0 0
SMALL
GASTEIGER

@<TRIPOS>ATOM
      1 C27        16.7630  -17.4890   -6.7900 C.ar    1  MOL1       -0.0240
      2 C28        17.6540  -18.3780   -6.1610 C.ar    1  MOL1       -0.0570
      3 C29        18.6200  -19.0590   -6.9090 C.ar    1  MOL1       -0.0610
      4 C30        18.7060  -18.8610   -8.2900 C.ar    1  MOL1       -0.0480
      5 C31        17.8280  -17.9770   -8.9280 C.ar    1  MOL1        0.0180
      6 Br32       17.9610  -17.6900  -10.8140 Br      1  MOL1       -0.0510
      7 C33        16.8580  -17.2980   -8.1840 C.ar    1  MOL1       -0.0430
      8  C6        15.6750  -16.8120   -5.9860 C.3     1  MOL1        0.0630
      9  C5        15.9470  -16.9840   -4.4800 C.3     1  MOL1        0.0510
     10  C1        14.2240  -13.6930   -3.3100 C.3     1  MOL1        0.0060
     11  N2        15.0040  -14.6530   -4.0770 N.am    1  MOL1       -0.3590
     12  C3        15.1440  -16.0160   -3.6610 C.2     1  MOL1        0.2220
     13  O4        14.5890  -16.4130   -2.6010 O.2     1  MOL1       -0.2750
     14  N7        14.3630  -17.3630   -6.3400 N.am    1  MOL1       -0.3460
     15  C8        13.3120  -16.5610   -6.8830 C.2     1  MOL1        0.2580
     16  O9        13.4850  -15.3270   -7.0660 O.2     1  MOL1       -0.2710
     17 C10        11.9980  -17.1810   -7.2520 C.3     1  MOL1        0.1670
     18 O11        12.1230  -17.9370   -8.4550 O.3     1  MOL1       -0.4800
     19 C12        11.4340  -19.1370   -8.6510 C.ar    1  MOL1        0.1660
     20 C13        11.9330  -20.3580   -8.1430 C.ar    1  MOL1        0.0120
     21 C21        11.1680  -21.5270   -8.2950 C.ar    1  MOL1       -0.0540
     22 C22         9.9550  -21.4940   -8.9820 C.ar    1  MOL1       -0.0580
     23 C23         9.4890  -20.2970   -9.5260 C.ar    1  MOL1       -0.0160
     24 C24        10.2270  -19.1100   -9.3690 C.ar    1  MOL1        0.1610
     25 C14        13.2700  -20.4420   -7.4400 C.3     1  MOL1        0.0280
     26 N15        14.1810  -21.3470   -8.1700 N.3     1  MOL1       -0.2870
     27 C16        14.6520  -22.4480   -7.3140 C.3     1  MOL1        0.0640
     28 C17        16.0860  -21.9560   -7.3450 C.3     1  MOL1        0.2720
     29 F18        16.9510  -22.8080   -8.0090 F       1  MOL1       -0.2040
     30 F19        16.5550  -21.5280   -6.1140 F       1  MOL1       -0.2040
     31 C20        15.5600  -20.8300   -8.2140 C.3     1  MOL1        0.0640
     32 O25         9.7950  -17.8870   -9.9020 O.3     1  MOL1       -0.4930
     33 C26         8.6950  -17.1340   -9.4010 C.3     1  MOL1        0.0780
@<TRIPOS>BOND
     1     6     5    1
     2    32    33    1
     3    32    24    1
     4    23    24   ar
     5    23    22   ar
     6    24    19   ar
     7    22    21   ar
     8     5     4   ar
     9     5     7   ar
    10    19    18    1
    11    19    20   ar
    12    18    17    1
    13    21    20   ar
    14     4     3   ar
    15    31    26    1
    16    31    28    1
    17     7     1   ar
    18    26    25    1
    19    26    27    1
    20    20    25    1
    21    29    28    1
    22    28    27    1
    23    28    30    1
    24    17    15    1
    25    16    15    2
    26     3     2   ar
    27    15    14   am
    28     1     2   ar
    29     1     8    1
    30    14     8    1
    31     8     9    1
    32     9    12    1
    33    11    12   am
    34    11    10    1
    35    12    13    2
