@<TRIPOS>MOLECULE
L3024_0_out.pdbqt
 33 35 0 0 0
SMALL
GASTEIGER

@<TRIPOS>ATOM
      1 C27        11.0880  -19.2620   -8.6430 C.ar    1  MOL1       -0.0240
      2 C28        10.7350  -17.9070   -8.5080 C.ar    1  MOL1       -0.0570
      3 C29         9.4910  -17.4510   -8.9570 C.ar    1  MOL1       -0.0610
      4 C30         8.5890  -18.3420   -9.5450 C.ar    1  MOL1       -0.0480
      5 C31         8.9260  -19.6930   -9.6830 C.ar    1  MOL1        0.0180
      6 Br32        7.6810  -20.9160  -10.4680 Br      1  MOL1       -0.0510
      7 C33        10.1710  -20.1510   -9.2390 C.ar    1  MOL1       -0.0430
      8  C6        12.4630  -19.7320   -8.2210 C.3     1  MOL1        0.0630
      9  C5        12.4960  -19.9660   -6.7000 C.3     1  MOL1        0.0510
     10  C1        12.8560  -23.8430   -6.5730 C.3     1  MOL1        0.0060
     11  N2        12.3690  -22.5040   -6.8720 N.am    1  MOL1       -0.3590
     12  C3        13.0180  -21.3330   -6.3640 C.2     1  MOL1        0.2220
     13  O4        14.0390  -21.4440   -5.6320 O.2     1  MOL1       -0.2750
     14  N7        13.4790  -18.7500   -8.6140 N.am    1  MOL1       -0.3460
     15  C8        14.8210  -19.1190   -8.9390 C.2     1  MOL1        0.2580
     16  O9        15.1780  -20.3260   -8.8850 O.2     1  MOL1       -0.2710
     17 C10        15.8130  -18.0770   -9.3610 C.3     1  MOL1        0.1670
     18 O11        16.2550  -17.3240   -8.2340 O.3     1  MOL1       -0.4800
     19 C12        16.7100  -17.9380   -7.0640 C.ar    1  MOL1        0.1660
     20 C13        15.9750  -17.8510   -5.8590 C.ar    1  MOL1        0.0120
     21 C21        16.4280  -18.5490   -4.7280 C.ar    1  MOL1       -0.0540
     22 C22        17.6140  -19.2810   -4.7760 C.ar    1  MOL1       -0.0580
     23 C23        18.3640  -19.3250   -5.9510 C.ar    1  MOL1       -0.0160
     24 C24        17.9200  -18.6500   -7.1030 C.ar    1  MOL1        0.1610
     25 C14        14.7120  -17.0240   -5.7540 C.3     1  MOL1        0.0280
     26 N15        15.0430  -15.6130   -5.4690 N.3     1  MOL1       -0.2870
     27 C16        15.0200  -15.3330   -4.0230 C.3     1  MOL1        0.0640
     28 C17        13.8290  -14.4020   -4.1480 C.3     1  MOL1        0.2720
     29 F18        14.1250  -13.0810   -3.8620 F       1  MOL1       -0.2040
     30 F19        12.6870  -14.8710   -3.5190 F       1  MOL1       -0.2040
     31 C20        13.8780  -14.7260   -5.6280 C.3     1  MOL1        0.0640
     32 O25        18.6440  -18.6680   -8.3040 O.3     1  MOL1       -0.4930
     33 C26        18.8890  -19.8360   -9.0800 C.3     1  MOL1        0.0780
@<TRIPOS>BOND
     1     6     5    1
     2     5     4   ar
     3     5     7   ar
     4     4     3   ar
     5    17    15    1
     6    17    18    1
     7     7     1   ar
     8    33    32    1
     9     3     2   ar
    10    15    16    2
    11    15    14   am
    12     1     2   ar
    13     1     8    1
    14    14     8    1
    15    32    24    1
    16    18    19    1
    17     8     9    1
    18    24    19   ar
    19    24    23   ar
    20    19    20   ar
    21    11    10    1
    22    11    12   am
    23     9    12    1
    24    12    13    2
    25    23    22   ar
    26    20    25    1
    27    20    21   ar
    28    25    26    1
    29    31    26    1
    30    31    28    1
    31    26    27    1
    32    22    21   ar
    33    28    27    1
    34    28    29    1
    35    28    30    1
