@<TRIPOS>MOLECULE
L3024_0_out.pdbqt
 33 35 0 0 0
SMALL
GASTEIGER

@<TRIPOS>ATOM
      1 C27        -0.5190  -20.6980   -8.2980 C.ar    1  MOL1       -0.0240
      2 C28        -0.5550  -19.5410   -7.4990 C.ar    1  MOL1       -0.0570
      3 C29        -1.7610  -18.8630   -7.2890 C.ar    1  MOL1       -0.0610
      4 C30        -2.9410  -19.3330   -7.8740 C.ar    1  MOL1       -0.0480
      5 C31        -2.9190  -20.4850   -8.6680 C.ar    1  MOL1        0.0180
      6 Br32       -4.5380  -21.1400   -9.4490 Br      1  MOL1       -0.0510
      7 C33        -1.7150  -21.1620   -8.8840 C.ar    1  MOL1       -0.0430
      8  C6         0.8000  -21.3830   -8.5790 C.3     1  MOL1        0.0630
      9  C5         0.7300  -22.8600   -8.1510 C.3     1  MOL1        0.0510
     10  C1        -0.7870  -24.2110  -11.4750 C.3     1  MOL1        0.0060
     11  N2        -0.0110  -23.4330  -10.5190 N.am    1  MOL1       -0.3590
     12  C3        -0.0900  -23.6730   -9.1100 C.2     1  MOL1        0.2220
     13  O4        -0.8510  -24.5760   -8.6640 O.2     1  MOL1       -0.2750
     14  N7         1.8900  -20.6940   -7.8800 N.am    1  MOL1       -0.3460
     15  C8         3.2580  -21.0860   -8.0120 C.2     1  MOL1        0.2580
     16  O9         3.5710  -22.0640   -8.7420 O.2     1  MOL1       -0.2710
     17 C10         4.3360  -20.3300   -7.2940 C.3     1  MOL1        0.1670
     18 O11         4.2950  -18.9490   -7.6450 O.3     1  MOL1       -0.4800
     19 C12         5.4570  -18.1980   -7.8390 C.ar    1  MOL1        0.1660
     20 C13         6.5190  -18.6870   -8.6330 C.ar    1  MOL1        0.0120
     21 C21         7.6350  -17.8660   -8.8660 C.ar    1  MOL1       -0.0540
     22 C22         7.7180  -16.6020   -8.2820 C.ar    1  MOL1       -0.0580
     23 C23         6.6920  -16.1420   -7.4570 C.ar    1  MOL1       -0.0160
     24 C24         5.5550  -16.9380   -7.2260 C.ar    1  MOL1        0.1610
     25 C14         6.4880  -20.0730   -9.2400 C.3     1  MOL1        0.0280
     26 N15         7.8570  -20.6150   -9.3590 N.3     1  MOL1       -0.2870
     27 C16         8.3350  -20.5780  -10.7510 C.3     1  MOL1        0.0640
     28 C17         8.3730  -22.0900  -10.8550 C.3     1  MOL1        0.2720
     29 F18         9.6510  -22.6050  -10.9880 F       1  MOL1       -0.2040
     30 F19         7.4610  -22.6100  -11.7590 F       1  MOL1       -0.2040
     31 C20         7.8690  -22.0860   -9.4250 C.3     1  MOL1        0.0640
     32 O25         4.5020  -16.5130   -6.4030 O.3     1  MOL1       -0.4930
     33 C26         3.5660  -15.4990   -6.7520 C.3     1  MOL1        0.0780
@<TRIPOS>BOND
     1    30    28    1
     2    10    11    1
     3    29    28    1
     4    28    27    1
     5    28    31    1
     6    27    26    1
     7    11    12   am
     8     6     5    1
     9    31    26    1
    10    26    25    1
    11    25    20    1
    12    12    13    2
    13    12     9    1
    14     7     5   ar
    15     7     1   ar
    16    21    20   ar
    17    21    22   ar
    18    16    15    2
    19     5     4   ar
    20    20    19   ar
    21     8     1    1
    22     8     9    1
    23     8    14    1
    24     1     2   ar
    25    22    23   ar
    26    15    14   am
    27    15    17    1
    28     4     3   ar
    29    19    18    1
    30    19    24   ar
    31    18    17    1
    32     2     3   ar
    33    23    24   ar
    34    24    32    1
    35    33    32    1
