@<TRIPOS>MOLECULE
L3024_0_out.pdbqt
 33 35 0 0 0
SMALL
GASTEIGER

@<TRIPOS>ATOM
      1 C27         8.4740  -17.7130   -9.2990 C.ar    1  MOL1       -0.0240
      2 C28         8.1960  -17.2700  -10.6050 C.ar    1  MOL1       -0.0570
      3 C29         7.0210  -16.5610  -10.8770 C.ar    1  MOL1       -0.0610
      4 C30         6.1130  -16.2880   -9.8510 C.ar    1  MOL1       -0.0480
      5 C31         6.3790  -16.7200   -8.5460 C.ar    1  MOL1        0.0180
      6 Br32        5.1460  -16.3270   -7.1370 Br      1  MOL1       -0.0510
      7 C33         7.5500  -17.4340   -8.2720 C.ar    1  MOL1       -0.0430
      8  C6         9.7110  -18.5420   -9.0280 C.3     1  MOL1        0.0630
      9  C5         9.3500  -19.7570   -8.1540 C.3     1  MOL1        0.0510
     10  C1         9.0710  -22.4670  -10.9370 C.3     1  MOL1        0.0060
     11  N2         9.5510  -21.3610  -10.1210 N.am    1  MOL1       -0.3590
     12  C3         8.8230  -20.8930   -8.9810 C.2     1  MOL1        0.2220
     13  O4         7.7320  -21.4380   -8.6600 O.2     1  MOL1       -0.2750
     14  N7        10.7380  -17.7230   -8.3750 N.am    1  MOL1       -0.3460
     15  C8        12.1100  -17.7500   -8.7730 C.2     1  MOL1        0.2580
     16  O9        12.4850  -18.5040   -9.7110 O.2     1  MOL1       -0.2710
     17 C10        13.1160  -16.8730   -8.0900 C.3     1  MOL1        0.1670
     18 O11        13.7860  -17.5920   -7.0570 O.3     1  MOL1       -0.4800
     19 C12        15.1800  -17.6560   -6.9830 C.ar    1  MOL1        0.1660
     20 C13        15.9270  -16.6250   -6.3680 C.ar    1  MOL1        0.0120
     21 C21        17.3190  -16.7680   -6.2440 C.ar    1  MOL1       -0.0540
     22 C22        17.9640  -17.8890   -6.7640 C.ar    1  MOL1       -0.0580
     23 C23        17.2310  -18.8820   -7.4150 C.ar    1  MOL1       -0.0160
     24 C24        15.8330  -18.7700   -7.5330 C.ar    1  MOL1        0.1610
     25 C14        15.2680  -15.3700   -5.8400 C.3     1  MOL1        0.0280
     26 N15        15.4850  -15.2470   -4.3830 N.3     1  MOL1       -0.2870
     27 C16        14.6450  -16.1930   -3.6290 C.3     1  MOL1        0.0640
     28 C17        13.8340  -15.0810   -2.9950 C.3     1  MOL1        0.2720
     29 F18        14.0150  -14.9710   -1.6270 F       1  MOL1       -0.2040
     30 F19        12.5050  -15.0650   -3.3880 F       1  MOL1       -0.2040
     31 C20        14.7100  -14.1400   -3.7980 C.3     1  MOL1        0.0640
     32 O25        15.0600  -19.7450   -8.1810 O.3     1  MOL1       -0.4930
     33 C26        15.5010  -21.0690   -8.4600 C.3     1  MOL1        0.0780
@<TRIPOS>BOND
     1    10    11    1
     2     3     2   ar
     3     3     4   ar
     4     2     1   ar
     5    11    12   am
     6     4     5   ar
     7    16    15    2
     8     1     8    1
     9     1     7   ar
    10     8    14    1
    11     8     9    1
    12    12    13    2
    13    12     9    1
    14    15    14   am
    15    15    17    1
    16     5     7   ar
    17     5     6    1
    18    33    32    1
    19    32    24    1
    20    17    18    1
    21    24    23   ar
    22    24    19   ar
    23    23    22   ar
    24    18    19    1
    25    19    20   ar
    26    22    21   ar
    27    20    21   ar
    28    20    25    1
    29    25    26    1
    30    26    31    1
    31    26    27    1
    32    31    28    1
    33    27    28    1
    34    30    28    1
    35    28    29    1
