@<TRIPOS>MOLECULE
L3024_0_out.pdbqt
 33 35 0 0 0
SMALL
GASTEIGER

@<TRIPOS>ATOM
      1 C27        10.5350  -18.6900   -9.0940 C.ar    1  MOL1       -0.0240
      2 C28        10.4830  -18.8950  -10.4850 C.ar    1  MOL1       -0.0570
      3 C29         9.3310  -18.5650  -11.2060 C.ar    1  MOL1       -0.0610
      4 C30         8.2210  -18.0300  -10.5470 C.ar    1  MOL1       -0.0480
      5 C31         8.2600  -17.8180   -9.1650 C.ar    1  MOL1        0.0180
      6 Br32        6.7480  -17.0640   -8.2680 Br      1  MOL1       -0.0510
      7 C33         9.4080  -18.1510   -8.4390 C.ar    1  MOL1       -0.0430
      8  C6        11.7580  -19.1170   -8.3100 C.3     1  MOL1        0.0630
      9  C5        11.5360  -20.5150   -7.7070 C.3     1  MOL1        0.0510
     10  C1        15.1320  -21.9580   -7.3080 C.3     1  MOL1        0.0060
     11  N2        13.8990  -21.4470   -7.8890 N.am    1  MOL1       -0.3590
     12  C3        12.7900  -21.0480   -7.0770 C.2     1  MOL1        0.2220
     13  O4        12.8610  -21.1400   -5.8210 O.2     1  MOL1       -0.2750
     14  N7        12.0520  -18.1400   -7.2560 N.am    1  MOL1       -0.3460
     15  C8        12.8190  -16.9580   -7.4950 C.2     1  MOL1        0.2580
     16  O9        13.2830  -16.7230   -8.6430 O.2     1  MOL1       -0.2710
     17 C10        13.0690  -15.9790   -6.3870 C.3     1  MOL1        0.1670
     18 O11        14.2150  -15.1820   -6.6750 O.3     1  MOL1       -0.4800
     19 C12        15.4320  -15.3670   -6.0140 C.ar    1  MOL1        0.1660
     20 C13        16.5970  -15.7460   -6.7200 C.ar    1  MOL1        0.0120
     21 C21        17.8160  -15.8440   -6.0290 C.ar    1  MOL1       -0.0540
     22 C22        17.8700  -15.6170   -4.6540 C.ar    1  MOL1       -0.0580
     23 C23        16.7100  -15.2920   -3.9500 C.ar    1  MOL1       -0.0160
     24 C24        15.4810  -15.1690   -4.6250 C.ar    1  MOL1        0.1610
     25 C14        16.5660  -16.0520   -8.2020 C.3     1  MOL1        0.0280
     26 N15        17.2110  -17.3530   -8.4730 N.3     1  MOL1       -0.2870
     27 C16        16.9960  -17.7840   -9.8650 C.3     1  MOL1        0.0640
     28 C17        16.1510  -18.9700   -9.4430 C.3     1  MOL1        0.2720
     29 F18        16.7370  -20.1940   -9.7130 F       1  MOL1       -0.2040
     30 F19        14.8270  -18.8820   -9.8430 F       1  MOL1       -0.2040
     31 C20        16.3840  -18.4870   -8.0250 C.3     1  MOL1        0.0640
     32 O25        14.2920  -14.8450   -3.9550 O.3     1  MOL1       -0.4930
     33 C26        14.0250  -13.5830   -3.3520 C.3     1  MOL1        0.0780
@<TRIPOS>BOND
     1     3     4   ar
     2     3     2   ar
     3     4     5   ar
     4     2     1   ar
     5    27    28    1
     6    27    26    1
     7    30    28    1
     8    29    28    1
     9    28    31    1
    10     5     7   ar
    11     5     6    1
    12     1     7   ar
    13     1     8    1
    14    16    15    2
    15    26    25    1
    16    26    31    1
    17     8     9    1
    18     8    14    1
    19    25    20    1
    20    11    10    1
    21    11    12   am
    22     9    12    1
    23    15    14   am
    24    15    17    1
    25    12    13    2
    26    20    21   ar
    27    20    19   ar
    28    18    17    1
    29    18    19    1
    30    21    22   ar
    31    19    24   ar
    32    22    23   ar
    33    24    32    1
    34    24    23   ar
    35    32    33    1
