@<TRIPOS>MOLECULE
L3024_0_out.pdbqt
 33 35 0 0 0
SMALL
GASTEIGER

@<TRIPOS>ATOM
      1 C27        15.3610  -16.2130   -4.8260 C.ar    1  MOL1       -0.0240
      2 C28        16.6670  -15.7380   -5.0470 C.ar    1  MOL1       -0.0570
      3 C29        17.7670  -16.4240   -4.5220 C.ar    1  MOL1       -0.0610
      4 C30        17.5760  -17.5880   -3.7730 C.ar    1  MOL1       -0.0480
      5 C31        16.2820  -18.0730   -3.5490 C.ar    1  MOL1        0.0180
      6 Br32       16.0230  -19.6790   -2.5410 Br      1  MOL1       -0.0510
      7 C33        15.1790  -17.3870   -4.0670 C.ar    1  MOL1       -0.0430
      8  C6        14.1730  -15.4260   -5.3350 C.3     1  MOL1        0.0630
      9  C5        13.2520  -15.0440   -4.1620 C.3     1  MOL1        0.0510
     10  C1        14.8920  -13.6390   -0.9200 C.3     1  MOL1        0.0060
     11  N2        14.2220  -14.5190   -1.8660 N.am    1  MOL1       -0.3590
     12  C3        13.9360  -14.1080   -3.2070 C.2     1  MOL1        0.2220
     13  O4        14.2600  -12.9540   -3.5980 O.2     1  MOL1       -0.2750
     14  N7        13.4370  -16.2060   -6.3360 N.am    1  MOL1       -0.3460
     15  C8        13.8420  -16.2760   -7.7050 C.2     1  MOL1        0.2580
     16  O9        14.8590  -15.6470   -8.1000 O.2     1  MOL1       -0.2710
     17 C10        13.0680  -17.1100   -8.6820 C.3     1  MOL1        0.1670
     18 O11        13.6350  -18.4150   -8.7830 O.3     1  MOL1       -0.4800
     19 C12        13.4010  -19.4010   -7.8200 C.ar    1  MOL1        0.1660
     20 C13        12.1670  -20.0870   -7.7610 C.ar    1  MOL1        0.0120
     21 C21        12.0040  -21.1250   -6.8280 C.ar    1  MOL1       -0.0540
     22 C22        13.0290  -21.4450   -5.9390 C.ar    1  MOL1       -0.0580
     23 C23        14.2290  -20.7330   -5.9660 C.ar    1  MOL1       -0.0160
     24 C24        14.4220  -19.7020   -6.9040 C.ar    1  MOL1        0.1610
     25 C14        11.0140  -19.7320   -8.6730 C.3     1  MOL1        0.0280
     26 N15         9.9090  -19.1310   -7.8990 N.3     1  MOL1       -0.2870
     27 C16         8.6230  -19.7870   -8.1890 C.3     1  MOL1        0.0640
     28 C17         8.0490  -18.5420   -8.8340 C.3     1  MOL1        0.2720
     29 F18         6.9990  -17.9830   -8.1260 F       1  MOL1       -0.2040
     30 F19         7.8010  -18.6800  -10.1900 F       1  MOL1       -0.2040
     31 C20         9.3910  -17.9050   -8.5300 C.3     1  MOL1        0.0640
     32 O25        15.6120  -18.9620   -6.9630 O.3     1  MOL1       -0.4930
     33 C26        16.9100  -19.5330   -7.0900 C.3     1  MOL1        0.0780
@<TRIPOS>BOND
     1    30    28    1
     2    28    31    1
     3    28    27    1
     4    28    29    1
     5    18    17    1
     6    18    19    1
     7    17    15    1
     8    25    26    1
     9    25    20    1
    10    31    26    1
    11    27    26    1
    12    16    15    2
    13    19    20   ar
    14    19    24   ar
    15    20    21   ar
    16    15    14   am
    17    33    32    1
    18    32    24    1
    19    24    23   ar
    20    21    22   ar
    21    14     8    1
    22    23    22   ar
    23     8     1    1
    24     8     9    1
    25     2     1   ar
    26     2     3   ar
    27     1     7   ar
    28     3     4   ar
    29     9    12    1
    30     7     5   ar
    31     4     5   ar
    32    13    12    2
    33     5     6    1
    34    12    11   am
    35    11    10    1
