@<TRIPOS>MOLECULE
L3024_0_out.pdbqt
 33 35 0 0 0
SMALL
GASTEIGER

@<TRIPOS>ATOM
      1 C27        13.5480  -19.2080   -7.0530 C.ar    1  MOL1       -0.0240
      2 C28        14.5810  -19.2580   -6.1000 C.ar    1  MOL1       -0.0570
      3 C29        15.0640  -20.4890   -5.6440 C.ar    1  MOL1       -0.0610
      4 C30        14.5210  -21.6800   -6.1340 C.ar    1  MOL1       -0.0480
      5 C31        13.4950  -21.6440   -7.0850 C.ar    1  MOL1        0.0180
      6 Br32       12.7670  -23.2750   -7.7710 Br      1  MOL1       -0.0510
      7 C33        13.0060  -20.4150   -7.5380 C.ar    1  MOL1       -0.0430
      8  C6        12.9810  -17.8730   -7.4860 C.3     1  MOL1        0.0630
      9  C5        11.8670  -18.0850   -8.5260 C.3     1  MOL1        0.0510
     10  C1         8.2320  -16.6910   -8.6580 C.3     1  MOL1        0.0060
     11  N2         9.4560  -17.4070   -8.9890 N.am    1  MOL1       -0.3590
     12  C3        10.6230  -17.3260   -8.1640 C.2     1  MOL1        0.2220
     13  O4        10.6130  -16.6170   -7.1210 O.2     1  MOL1       -0.2750
     14  N7        14.0450  -17.0230   -8.0340 N.am    1  MOL1       -0.3460
     15  C8        14.3490  -15.7320   -7.5020 C.2     1  MOL1        0.2580
     16  O9        13.6900  -15.2740   -6.5320 O.2     1  MOL1       -0.2710
     17 C10        15.4640  -14.9160   -8.0840 C.3     1  MOL1        0.1670
     18 O11        16.5890  -14.9120   -7.2080 O.3     1  MOL1       -0.4800
     19 C12        17.1590  -16.0930   -6.7280 C.ar    1  MOL1        0.1660
     20 C13        17.2870  -16.3330   -5.3400 C.ar    1  MOL1        0.0120
     21 C21        17.7930  -17.5670   -4.9010 C.ar    1  MOL1       -0.0540
     22 C22        18.2110  -18.5280   -5.8220 C.ar    1  MOL1       -0.0580
     23 C23        18.1320  -18.2700   -7.1900 C.ar    1  MOL1       -0.0160
     24 C24        17.6090  -17.0490   -7.6540 C.ar    1  MOL1        0.1610
     25 C14        16.8930  -15.2940   -4.3130 C.3     1  MOL1        0.0280
     26 N15        16.2390  -15.9360   -3.1550 N.3     1  MOL1       -0.2870
     27 C16        14.7720  -15.9090   -3.2780 C.3     1  MOL1        0.0640
     28 C17        14.6160  -14.9810   -2.0890 C.3     1  MOL1        0.2720
     29 F18        13.9850  -15.5680   -1.0060 F       1  MOL1       -0.2040
     30 F19        14.1180  -13.7310   -2.4190 F       1  MOL1       -0.2040
     31 C20        16.1290  -15.0240   -2.0030 C.3     1  MOL1        0.0640
     32 O25        17.5130  -16.7500   -9.0210 O.3     1  MOL1       -0.4930
     33 C26        17.4900  -17.7240  -10.0590 C.3     1  MOL1        0.0780
@<TRIPOS>BOND
     1    33    32    1
     2    32    24    1
     3    11    10    1
     4    11    12   am
     5     9    12    1
     6     9     8    1
     7    12    13    2
     8    17    15    1
     9    17    18    1
    10    14    15   am
    11    14     8    1
    12     6     5    1
    13    24    23   ar
    14    24    19   ar
    15     7     5   ar
    16     7     1   ar
    17    15    16    2
    18     8     1    1
    19    18    19    1
    20    23    22   ar
    21     5     4   ar
    22     1     2   ar
    23    19    20   ar
    24     4     3   ar
    25     2     3   ar
    26    22    21   ar
    27    20    21   ar
    28    20    25    1
    29    25    26    1
    30    27    26    1
    31    27    28    1
    32    26    31    1
    33    30    28    1
    34    28    31    1
    35    28    29    1
