@<TRIPOS>MOLECULE
L3024_0_out.pdbqt
 33 35 0 0 0
SMALL
GASTEIGER

@<TRIPOS>ATOM
      1 C27        10.3440  -18.1040   -8.5810 C.ar    1  MOL1       -0.0240
      2 C28         9.9050  -16.9960   -7.8340 C.ar    1  MOL1       -0.0570
      3 C29         8.7750  -16.2750   -8.2350 C.ar    1  MOL1       -0.0610
      4 C30         8.0750  -16.6520   -9.3840 C.ar    1  MOL1       -0.0480
      5 C31         8.4990  -17.7540  -10.1350 C.ar    1  MOL1        0.0180
      6 Br32        7.5270  -18.2810  -11.6960 Br      1  MOL1       -0.0510
      7 C33         9.6310  -18.4740   -9.7400 C.ar    1  MOL1       -0.0430
      8  C6        11.6080  -18.8340   -8.1810 C.3     1  MOL1        0.0630
      9  C5        11.2580  -20.2200   -7.6100 C.3     1  MOL1        0.0510
     10  C1        13.6760  -23.0280   -6.4070 C.3     1  MOL1        0.0060
     11  N2        12.5130  -22.1620   -6.5410 N.am    1  MOL1       -0.3590
     12  C3        12.4760  -21.0890   -7.4890 C.2     1  MOL1        0.2220
     13  O4        13.4700  -20.8690   -8.2340 O.2     1  MOL1       -0.2750
     14  N7        12.3610  -18.0460   -7.2000 N.am    1  MOL1       -0.3460
     15  C8        13.4710  -17.2230   -7.5630 C.2     1  MOL1        0.2580
     16  O9        13.8480  -17.1590   -8.7640 O.2     1  MOL1       -0.2710
     17 C10        14.1900  -16.4170   -6.5230 C.3     1  MOL1        0.1670
     18 O11        15.5290  -16.1520   -6.9350 O.3     1  MOL1       -0.4800
     19 C12        16.6010  -16.9530   -6.5310 C.ar    1  MOL1        0.1660
     20 C13        17.0180  -16.9890   -5.1800 C.ar    1  MOL1        0.0120
     21 C21        18.0480  -17.8670   -4.8040 C.ar    1  MOL1       -0.0540
     22 C22        18.6870  -18.6590   -5.7580 C.ar    1  MOL1       -0.0580
     23 C23        18.3080  -18.5850   -7.0990 C.ar    1  MOL1       -0.0160
     24 C24        17.2650  -17.7270   -7.4960 C.ar    1  MOL1        0.1610
     25 C14        16.3850  -16.1060   -4.1270 C.3     1  MOL1        0.0280
     26 N15        16.9860  -16.3700   -2.8040 N.3     1  MOL1       -0.2870
     27 C16        15.9780  -16.3240   -1.7320 C.3     1  MOL1        0.0640
     28 C17        16.5980  -15.0930   -1.1010 C.3     1  MOL1        0.2720
     29 F18        17.1460  -15.3250    0.1490 F       1  MOL1       -0.2040
     30 F19        15.7900  -13.9690   -1.1590 F       1  MOL1       -0.2040
     31 C20        17.6100  -15.1660   -2.2270 C.3     1  MOL1        0.0640
     32 O25        16.8550  -17.6220   -8.8330 O.3     1  MOL1       -0.4930
     33 C26        17.6780  -17.1490   -9.8930 C.3     1  MOL1        0.0780
@<TRIPOS>BOND
     1     6     5    1
     2     5     7   ar
     3     5     4   ar
     4    33    32    1
     5     7     1   ar
     6     4     3   ar
     7    32    24    1
     8    16    15    2
     9     1     8    1
    10     1     2   ar
    11     3     2   ar
    12    13    12    2
    13     8     9    1
    14     8    14    1
    15     9    12    1
    16    15    14   am
    17    15    17    1
    18    24    23   ar
    19    24    19   ar
    20    12    11   am
    21    23    22   ar
    22    18    19    1
    23    18    17    1
    24    11    10    1
    25    19    20   ar
    26    22    21   ar
    27    20    21   ar
    28    20    25    1
    29    25    26    1
    30    26    31    1
    31    26    27    1
    32    31    28    1
    33    27    28    1
    34    30    28    1
    35    28    29    1
