@<TRIPOS>MOLECULE
L3024_0_out.pdbqt
 33 35 0 0 0
SMALL
GASTEIGER

@<TRIPOS>ATOM
      1 C27        17.8940  -17.5260  -11.1160 C.ar    1  MOL1       -0.0240
      2 C28        18.6620  -16.3580  -11.2760 C.ar    1  MOL1       -0.0570
      3 C29        18.8830  -15.8260  -12.5510 C.ar    1  MOL1       -0.0610
      4 C30        18.3410  -16.4530  -13.6760 C.ar    1  MOL1       -0.0480
      5 C31        17.5730  -17.6130  -13.5310 C.ar    1  MOL1        0.0180
      6 Br32       16.8130  -18.4590  -15.0700 Br      1  MOL1       -0.0510
      7 C33        17.3540  -18.1510  -12.2580 C.ar    1  MOL1       -0.0430
      8  C6        17.7210  -18.1360   -9.7420 C.3     1  MOL1        0.0630
      9  C5        17.0220  -19.5020   -9.8560 C.3     1  MOL1        0.0510
     10  C1        17.3690  -22.3640   -7.2360 C.3     1  MOL1        0.0060
     11  N2        16.8050  -21.3680   -8.1350 N.am    1  MOL1       -0.3590
     12  C3        17.6340  -20.5130   -8.9300 C.2     1  MOL1        0.2220
     13  O4        18.8900  -20.6060   -8.8580 O.2     1  MOL1       -0.2750
     14  N7        16.9520  -17.2330   -8.8780 N.am    1  MOL1       -0.3460
     15  C8        17.2240  -17.0860   -7.4830 C.2     1  MOL1        0.2580
     16  O9        18.1470  -17.7520   -6.9420 O.2     1  MOL1       -0.2710
     17 C10        16.4250  -16.1290   -6.6510 C.3     1  MOL1        0.1670
     18 O11        15.1570  -16.6920   -6.3220 O.3     1  MOL1       -0.4800
     19 C12        15.0400  -17.9030   -5.6350 C.ar    1  MOL1        0.1660
     20 C13        14.5390  -19.0610   -6.2740 C.ar    1  MOL1        0.0120
     21 C21        14.5130  -20.2760   -5.5690 C.ar    1  MOL1       -0.0540
     22 C22        14.9310  -20.3320   -4.2390 C.ar    1  MOL1       -0.0580
     23 C23        15.3780  -19.1780   -3.5950 C.ar    1  MOL1       -0.0160
     24 C24        15.4320  -17.9540   -4.2870 C.ar    1  MOL1        0.1610
     25 C14        14.0270  -19.0270   -7.6970 C.3     1  MOL1        0.0280
     26 N15        12.6260  -18.5590   -7.7300 N.3     1  MOL1       -0.2870
     27 C16        11.7880  -19.4180   -8.5830 C.3     1  MOL1        0.0640
     28 C17        11.5510  -18.3100   -9.5910 C.3     1  MOL1        0.2720
     29 F18        10.2370  -17.8800   -9.6440 F       1  MOL1       -0.2040
     30 F19        12.1110  -18.5580  -10.8340 F       1  MOL1       -0.2040
     31 C20        12.4300  -17.4620   -8.6930 C.3     1  MOL1        0.0640
     32 O25        15.8740  -16.7710   -3.6760 O.3     1  MOL1       -0.4930
     33 C26        15.4280  -16.3050   -2.4070 C.3     1  MOL1        0.0780
@<TRIPOS>BOND
     1     6     5    1
     2     4     5   ar
     3     4     3   ar
     4     5     7   ar
     5     3     2   ar
     6     7     1   ar
     7     2     1   ar
     8     1     8    1
     9    30    28    1
    10     9     8    1
    11     9    12    1
    12     8    14    1
    13    29    28    1
    14    28    31    1
    15    28    27    1
    16    12    13    2
    17    12    11   am
    18    14    15   am
    19    31    26    1
    20    27    26    1
    21    11    10    1
    22    26    25    1
    23    25    20    1
    24    15    16    2
    25    15    17    1
    26    17    18    1
    27    18    19    1
    28    20    19   ar
    29    20    21   ar
    30    19    24   ar
    31    21    22   ar
    32    24    32    1
    33    24    23   ar
    34    22    23   ar
    35    32    33    1
