@<TRIPOS>MOLECULE
L3024_0_out.pdbqt
 33 35 0 0 0
SMALL
GASTEIGER

@<TRIPOS>ATOM
      1 C27         7.0100  -19.2070   -9.9010 C.ar    1  MOL1       -0.0240
      2 C28         7.1430  -20.0500  -11.0200 C.ar    1  MOL1       -0.0570
      3 C29         6.5460  -21.3150  -11.0280 C.ar    1  MOL1       -0.0610
      4 C30         5.8130  -21.7520   -9.9210 C.ar    1  MOL1       -0.0480
      5 C31         5.6700  -20.9220   -8.8030 C.ar    1  MOL1        0.0180
      6 Br32        4.6480  -21.5120   -7.2980 Br      1  MOL1       -0.0510
      7 C33         6.2700  -19.6590   -8.7900 C.ar    1  MOL1       -0.0430
      8  C6         7.7190  -17.8710   -9.8720 C.3     1  MOL1        0.0630
      9  C5         7.4350  -17.0940  -11.1700 C.3     1  MOL1        0.0510
     10  C1         4.8080  -14.3210  -11.9320 C.3     1  MOL1        0.0060
     11  N2         5.8680  -15.3070  -12.0850 N.am    1  MOL1       -0.3590
     12  C3         6.3480  -16.0770  -10.9780 C.2     1  MOL1        0.2220
     13  O4         5.8550  -15.9080   -9.8290 O.2     1  MOL1       -0.2750
     14  N7         9.1620  -18.0640   -9.6900 N.am    1  MOL1       -0.3460
     15  C8         9.9100  -17.3740   -8.6880 C.2     1  MOL1        0.2580
     16  O9         9.3400  -16.5530   -7.9210 O.2     1  MOL1       -0.2710
     17 C10        11.3790  -17.6280   -8.5280 C.3     1  MOL1        0.1670
     18 O11        11.6320  -18.3520   -7.3260 O.3     1  MOL1       -0.4800
     19 C12        12.4170  -19.5080   -7.3090 C.ar    1  MOL1        0.1660
     20 C13        13.7740  -19.4650   -6.9140 C.ar    1  MOL1        0.0120
     21 C21        14.5030  -20.6630   -6.8350 C.ar    1  MOL1       -0.0540
     22 C22        13.9120  -21.8760   -7.1880 C.ar    1  MOL1       -0.0580
     23 C23        12.5880  -21.9100   -7.6250 C.ar    1  MOL1       -0.0160
     24 C24        11.8320  -20.7260   -7.6930 C.ar    1  MOL1        0.1610
     25 C14        14.4640  -18.1620   -6.5750 C.3     1  MOL1        0.0280
     26 N15        15.0450  -17.5550   -7.7900 N.3     1  MOL1       -0.2870
     27 C16        16.4690  -17.2260   -7.6030 C.3     1  MOL1        0.0640
     28 C17        16.2130  -15.7360   -7.7080 C.3     1  MOL1        0.2720
     29 F18        16.7720  -15.1540   -8.8330 F       1  MOL1       -0.2040
     30 F19        16.4640  -15.0430   -6.5350 F       1  MOL1       -0.2040
     31 C20        14.7560  -16.1140   -7.8840 C.3     1  MOL1        0.0640
     32 O25        10.4990  -20.7170   -8.1290 O.3     1  MOL1       -0.4930
     33 C26         9.9530  -21.6330   -9.0720 C.3     1  MOL1        0.0780
@<TRIPOS>BOND
     1    11    10    1
     2    11    12   am
     3     9    12    1
     4     9     8    1
     5     3     2   ar
     6     3     4   ar
     7     2     1   ar
     8    12    13    2
     9     4     5   ar
    10     1     8    1
    11     1     7   ar
    12     8    14    1
    13    14    15   am
    14    33    32    1
    15    29    28    1
    16     5     7   ar
    17     5     6    1
    18    15    17    1
    19    15    16    2
    20    17    18    1
    21    32    24    1
    22    31    26    1
    23    31    28    1
    24    26    27    1
    25    26    25    1
    26    28    27    1
    27    28    30    1
    28    24    23   ar
    29    24    19   ar
    30    23    22   ar
    31    18    19    1
    32    19    20   ar
    33    22    21   ar
    34    20    21   ar
    35    20    25    1
