@<TRIPOS>MOLECULE
L3024_0_out.pdbqt
 33 35 0 0 0
SMALL
GASTEIGER

@<TRIPOS>ATOM
      1 C27         8.0990  -17.5060   -9.3240 C.ar    1  MOL1       -0.0240
      2 C28         7.8410  -16.8800  -10.5570 C.ar    1  MOL1       -0.0570
      3 C29         6.6990  -16.0890  -10.7240 C.ar    1  MOL1       -0.0610
      4 C30         5.8050  -15.9160   -9.6640 C.ar    1  MOL1       -0.0480
      5 C31         6.0510  -16.5310   -8.4310 C.ar    1  MOL1        0.0180
      6 Br32        4.8380  -16.2760   -6.9740 Br      1  MOL1       -0.0510
      7 C33         7.1890  -17.3270   -8.2630 C.ar    1  MOL1       -0.0430
      8  C6         9.2970  -18.4180   -9.1740 C.3     1  MOL1        0.0630
      9  C5         8.9620  -19.5770   -8.2180 C.3     1  MOL1        0.0510
     10  C1         7.7150  -22.7880  -10.0350 C.3     1  MOL1        0.0060
     11  N2         7.7400  -21.5130   -9.3340 N.am    1  MOL1       -0.3590
     12  C3         8.9690  -20.8980   -8.9300 C.2     1  MOL1        0.2220
     13  O4        10.0690  -21.4640   -9.1740 O.2     1  MOL1       -0.2750
     14  N7        10.4540  -17.6610   -8.6830 N.am    1  MOL1       -0.3460
     15  C8        11.7830  -17.8970   -9.1510 C.2     1  MOL1        0.2580
     16  O9        12.0040  -18.7900  -10.0120 O.2     1  MOL1       -0.2710
     17 C10        12.9260  -17.0760   -8.6340 C.3     1  MOL1        0.1670
     18 O11        13.6480  -17.7980   -7.6390 O.3     1  MOL1       -0.4800
     19 C12        15.0450  -17.8000   -7.5920 C.ar    1  MOL1        0.1660
     20 C13        15.7580  -16.7390   -6.9900 C.ar    1  MOL1        0.0120
     21 C21        17.1580  -16.8200   -6.8950 C.ar    1  MOL1       -0.0540
     22 C22        17.8410  -17.9120   -7.4310 C.ar    1  MOL1       -0.0580
     23 C23        17.1390  -18.9340   -8.0690 C.ar    1  MOL1       -0.0160
     24 C24        15.7350  -18.8840   -8.1590 C.ar    1  MOL1        0.1610
     25 C14        15.0560  -15.5150   -6.4450 C.3     1  MOL1        0.0280
     26 N15        14.2060  -15.8780   -5.2930 N.3     1  MOL1       -0.2870
     27 C16        13.8430  -14.6950   -4.4940 C.3     1  MOL1        0.0640
     28 C17        14.6360  -15.1720   -3.2930 C.3     1  MOL1        0.2720
     29 F18        13.8490  -15.4950   -2.2010 F       1  MOL1       -0.2040
     30 F19        15.7200  -14.3670   -2.9850 F       1  MOL1       -0.2040
     31 C20        14.9980  -16.3680   -4.1510 C.3     1  MOL1        0.0640
     32 O25        14.9930  -19.8900   -8.7940 O.3     1  MOL1       -0.4930
     33 C26        15.1990  -21.2860   -8.6020 C.3     1  MOL1        0.0780
@<TRIPOS>BOND
     1     3     2   ar
     2     3     4   ar
     3     2     1   ar
     4    10    11    1
     5    16    15    2
     6     4     5   ar
     7    11    12   am
     8     1     8    1
     9     1     7   ar
    10     8    14    1
    11     8     9    1
    12    13    12    2
    13    15    14   am
    14    15    17    1
    15    12     9    1
    16    32    33    1
    17    32    24    1
    18    17    18    1
    19     5     7   ar
    20     5     6    1
    21    24    23   ar
    22    24    19   ar
    23    23    22   ar
    24    18    19    1
    25    19    20   ar
    26    22    21   ar
    27    20    21   ar
    28    20    25    1
    29    25    26    1
    30    26    27    1
    31    26    31    1
    32    27    28    1
    33    31    28    1
    34    28    30    1
    35    28    29    1
