@<TRIPOS>MOLECULE
L3024_0_out.pdbqt
 33 35 0 0 0
SMALL
GASTEIGER

@<TRIPOS>ATOM
      1 C27        18.1030  -18.5180   -9.6460 C.ar    1  MOL1       -0.0240
      2 C28        19.2880  -19.2740   -9.6050 C.ar    1  MOL1       -0.0570
      3 C29        20.3790  -18.9240  -10.4070 C.ar    1  MOL1       -0.0610
      4 C30        20.2980  -17.8180  -11.2580 C.ar    1  MOL1       -0.0480
      5 C31        19.1260  -17.0550  -11.3060 C.ar    1  MOL1        0.0180
      6 Br32       19.0230  -15.5280  -12.4540 Br      1  MOL1       -0.0510
      7 C33        18.0310  -17.4060  -10.5090 C.ar    1  MOL1       -0.0430
      8  C6        16.9030  -18.9460   -8.8290 C.3     1  MOL1        0.0630
      9  C5        15.6330  -18.9070   -9.6980 C.3     1  MOL1        0.0510
     10  C1        12.2930  -18.0380   -7.8920 C.3     1  MOL1        0.0060
     11  N2        13.5090  -17.9320   -8.6850 N.am    1  MOL1       -0.3590
     12  C3        14.3910  -19.0450   -8.8650 C.2     1  MOL1        0.2220
     13  O4        14.1290  -20.1540   -8.3240 O.2     1  MOL1       -0.2750
     14  N7        16.7520  -18.0800   -7.6550 N.am    1  MOL1       -0.3460
     15  C8        17.0650  -18.5170   -6.3310 C.2     1  MOL1        0.2580
     16  O9        17.4790  -19.6900   -6.1310 O.2     1  MOL1       -0.2710
     17 C10        16.9170  -17.5820   -5.1690 C.3     1  MOL1        0.1670
     18 O11        15.5950  -17.6470   -4.6400 O.3     1  MOL1       -0.4800
     19 C12        15.0080  -16.5680   -3.9750 C.ar    1  MOL1        0.1660
     20 C13        15.0230  -16.4830   -2.5640 C.ar    1  MOL1        0.0120
     21 C21        14.4920  -15.3420   -1.9400 C.ar    1  MOL1       -0.0540
     22 C22        13.9120  -14.3250   -2.6990 C.ar    1  MOL1       -0.0580
     23 C23        13.8530  -14.4340   -4.0880 C.ar    1  MOL1       -0.0160
     24 C24        14.3970  -15.5590   -4.7370 C.ar    1  MOL1        0.1610
     25 C14        15.5960  -17.5890   -1.7050 C.3     1  MOL1        0.0280
     26 N15        14.6080  -18.6750   -1.5370 N.3     1  MOL1       -0.2870
     27 C16        14.5830  -19.1750   -0.1520 C.3     1  MOL1        0.0640
     28 C17        15.1150  -20.5360   -0.5570 C.3     1  MOL1        0.2720
     29 F18        14.2040  -21.5630   -0.3840 F       1  MOL1       -0.2040
     30 F19        16.3760  -20.8140   -0.0540 F       1  MOL1       -0.2040
     31 C20        15.1380  -19.9800   -1.9670 C.3     1  MOL1        0.0640
     32 O25        14.3570  -15.7070   -6.1310 O.3     1  MOL1       -0.4930
     33 C26        14.3650  -14.6250   -7.0560 C.3     1  MOL1        0.0780
@<TRIPOS>BOND
     1     6     5    1
     2     5     4   ar
     3     5     7   ar
     4     4     3   ar
     5     7     1   ar
     6     3     2   ar
     7     9    12    1
     8     9     8    1
     9     1     2   ar
    10     1     8    1
    11    12    11   am
    12    12    13    2
    13     8    14    1
    14    11    10    1
    15    14    15   am
    16    33    32    1
    17    15    16    2
    18    15    17    1
    19    32    24    1
    20    17    18    1
    21    24    23   ar
    22    24    19   ar
    23    18    19    1
    24    23    22   ar
    25    19    20   ar
    26    22    21   ar
    27    20    21   ar
    28    20    25    1
    29    31    26    1
    30    31    28    1
    31    25    26    1
    32    26    27    1
    33    28    29    1
    34    28    27    1
    35    28    30    1
