@<TRIPOS>MOLECULE
L3024_0_out.pdbqt
 33 35 0 0 0
SMALL
GASTEIGER

@<TRIPOS>ATOM
      1 C27        15.8110  -18.0470   -7.5490 C.ar    1  MOL1       -0.0240
      2 C28        16.0600  -17.2470   -8.6790 C.ar    1  MOL1       -0.0570
      3 C29        17.2360  -17.4140   -9.4180 C.ar    1  MOL1       -0.0610
      4 C30        18.1730  -18.3780   -9.0370 C.ar    1  MOL1       -0.0480
      5 C31        17.9360  -19.1830   -7.9170 C.ar    1  MOL1        0.0180
      6 Br32       19.2090  -20.5170   -7.4090 Br      1  MOL1       -0.0510
      7 C33        16.7640  -19.0150   -7.1720 C.ar    1  MOL1       -0.0430
      8  C6        14.5710  -17.8110   -6.7130 C.3     1  MOL1        0.0630
      9  C5        14.9690  -17.4340   -5.2750 C.3     1  MOL1        0.0510
     10  C1        14.1210  -14.0600   -3.5220 C.3     1  MOL1        0.0060
     11  N2        14.2740  -15.4820   -3.7930 N.am    1  MOL1       -0.3590
     12  C3        14.8150  -15.9610   -5.0290 C.2     1  MOL1        0.2220
     13  O4        15.1690  -15.1440   -5.9230 O.2     1  MOL1       -0.2750
     14  N7        13.7210  -19.0060   -6.7170 N.am    1  MOL1       -0.3460
     15  C8        12.5260  -19.0970   -7.4940 C.2     1  MOL1        0.2580
     16  O9        12.1560  -18.1270   -8.2070 O.2     1  MOL1       -0.2710
     17 C10        11.7070  -20.3530   -7.4820 C.3     1  MOL1        0.1670
     18 O11        11.2290  -20.6510   -8.7920 O.3     1  MOL1       -0.4800
     19 C12        10.0790  -21.4150   -9.0060 C.ar    1  MOL1        0.1660
     20 C13         8.7990  -20.8160   -9.0410 C.ar    1  MOL1        0.0120
     21 C21         7.6790  -21.6100   -9.3370 C.ar    1  MOL1       -0.0540
     22 C22         7.8190  -22.9820   -9.5480 C.ar    1  MOL1       -0.0580
     23 C23         9.0770  -23.5790   -9.4640 C.ar    1  MOL1       -0.0160
     24 C24        10.2160  -22.8010   -9.1870 C.ar    1  MOL1        0.1610
     25 C14         8.6010  -19.3420   -8.7650 C.3     1  MOL1        0.0280
     26 N15         7.6070  -18.7720   -9.6970 N.3     1  MOL1       -0.2870
     27 C16         8.2220  -17.8030  -10.6200 C.3     1  MOL1        0.0640
     28 C17         7.4490  -16.6400  -10.0310 C.3     1  MOL1        0.2720
     29 F18         6.5290  -16.0850  -10.9040 F       1  MOL1       -0.2040
     30 F19         8.2470  -15.7070   -9.3890 F       1  MOL1       -0.2040
     31 C20         6.8470  -17.6650   -9.0900 C.3     1  MOL1        0.0640
     32 O25        11.4980  -23.3630   -9.0930 O.3     1  MOL1       -0.4930
     33 C26        12.0210  -23.9840   -7.9240 C.3     1  MOL1        0.0780
@<TRIPOS>BOND
     1    29    28    1
     2    27    28    1
     3    27    26    1
     4    28    30    1
     5    28    31    1
     6    26    31    1
     7    26    25    1
     8    22    23   ar
     9    22    21   ar
    10    23    24   ar
    11     3     4   ar
    12     3     2   ar
    13    21    20   ar
    14    24    32    1
    15    24    19   ar
    16    32    33    1
    17    20    19   ar
    18    20    25    1
    19     4     5   ar
    20    19    18    1
    21    18    17    1
    22     2     1   ar
    23    16    15    2
    24     5     6    1
    25     5     7   ar
    26     1     7   ar
    27     1     8    1
    28    15    17    1
    29    15    14   am
    30    14     8    1
    31     8     9    1
    32    13    12    2
    33     9    12    1
    34    12    11   am
    35    11    10    1
