@<TRIPOS>MOLECULE
L3024_0_out.pdbqt
 33 35 0 0 0
SMALL
GASTEIGER

@<TRIPOS>ATOM
      1 C27        16.2440  -19.0850   -3.5180 C.ar    1  MOL1       -0.0240
      2 C28        16.0990  -17.6970   -3.3380 C.ar    1  MOL1       -0.0570
      3 C29        15.4870  -17.1930   -2.1850 C.ar    1  MOL1       -0.0610
      4 C30        15.0140  -18.0680   -1.2030 C.ar    1  MOL1       -0.0480
      5 C31        15.1550  -19.4500   -1.3680 C.ar    1  MOL1        0.0180
      6 Br32       14.5280  -20.6450   -0.0120 Br      1  MOL1       -0.0510
      7 C33        15.7620  -19.9580   -2.5210 C.ar    1  MOL1       -0.0430
      8  C6        16.8420  -19.6240   -4.7990 C.3     1  MOL1        0.0630
      9  C5        18.0450  -18.7630   -5.2240 C.3     1  MOL1        0.0510
     10  C1        19.6510  -20.9520   -8.0160 C.3     1  MOL1        0.0060
     11  N2        19.1290  -20.5040   -6.7330 N.am    1  MOL1       -0.3590
     12  C3        18.5860  -19.1910   -6.5570 C.2     1  MOL1        0.2220
     13  O4        18.5560  -18.3840   -7.5260 O.2     1  MOL1       -0.2750
     14  N7        15.8280  -19.6540   -5.8590 N.am    1  MOL1       -0.3460
     15  C8        15.3170  -20.8730   -6.4010 C.2     1  MOL1        0.2580
     16  O9        15.7410  -21.9820   -5.9800 O.2     1  MOL1       -0.2710
     17 C10        14.2620  -20.8470   -7.4660 C.3     1  MOL1        0.1670
     18 O11        13.0310  -20.3600   -6.9370 O.3     1  MOL1       -0.4800
     19 C12        12.1120  -19.6600   -7.7230 C.ar    1  MOL1        0.1660
     20 C13        12.2490  -18.2700   -7.9450 C.ar    1  MOL1        0.0120
     21 C21        11.3470  -17.6220   -8.8060 C.ar    1  MOL1       -0.0540
     22 C22        10.3000  -18.3290   -9.3970 C.ar    1  MOL1       -0.0580
     23 C23        10.1370  -19.6890   -9.1350 C.ar    1  MOL1       -0.0160
     24 C24        11.0390  -20.3640   -8.2930 C.ar    1  MOL1        0.1610
     25 C14        13.3400  -17.4600   -7.2800 C.3     1  MOL1        0.0280
     26 N15        14.0770  -16.6660   -8.2840 N.3     1  MOL1       -0.2870
     27 C16        15.4730  -17.1170   -8.4130 C.3     1  MOL1        0.0640
     28 C17        16.0210  -15.8160   -7.8610 C.3     1  MOL1        0.2720
     29 F18        16.7320  -15.0740   -8.7890 F       1  MOL1       -0.2040
     30 F19        16.6650  -15.9540   -6.6420 F       1  MOL1       -0.2040
     31 C20        14.5710  -15.3930   -7.7320 C.3     1  MOL1        0.0640
     32 O25        10.9100  -21.7310   -8.0040 O.3     1  MOL1       -0.4930
     33 C26        11.2110  -22.7790   -8.9180 C.3     1  MOL1        0.0780
@<TRIPOS>BOND
     1    22    23   ar
     2    22    21   ar
     3    23    24   ar
     4    33    32    1
     5    21    20   ar
     6    29    28    1
     7    27    26    1
     8    27    28    1
     9    24    32    1
    10    24    19   ar
    11    26    31    1
    12    26    25    1
    13    10    11    1
    14    20    19   ar
    15    20    25    1
    16    28    31    1
    17    28    30    1
    18    19    18    1
    19    13    12    2
    20    17    18    1
    21    17    15    1
    22    11    12   am
    23    12     9    1
    24    15    16    2
    25    15    14   am
    26    14     8    1
    27     9     8    1
    28     8     1    1
    29     1     2   ar
    30     1     7   ar
    31     2     3   ar
    32     7     5   ar
    33     3     4   ar
    34     5     4   ar
    35     5     6    1
