@<TRIPOS>MOLECULE
L3024_0_out.pdbqt
 33 35 0 0 0
SMALL
GASTEIGER

@<TRIPOS>ATOM
      1 C27         4.1890  -13.7060  -11.4940 C.ar    1  MOL1       -0.0240
      2 C28         4.7690  -13.9980  -12.7420 C.ar    1  MOL1       -0.0570
      3 C29         4.8200  -13.0220  -13.7440 C.ar    1  MOL1       -0.0610
      4 C30         4.2930  -11.7490  -13.5110 C.ar    1  MOL1       -0.0480
      5 C31         3.7160  -11.4450  -12.2730 C.ar    1  MOL1        0.0180
      6 Br32        3.0150   -9.6950  -11.9470 Br      1  MOL1       -0.0510
      7 C33         3.6590  -12.4190  -11.2710 C.ar    1  MOL1       -0.0430
      8  C6         4.0730  -14.7870  -10.4420 C.3     1  MOL1        0.0630
      9  C5         3.0890  -14.3490   -9.3420 C.3     1  MOL1        0.0510
     10  C1         4.5770  -16.4960   -6.4520 C.3     1  MOL1        0.0060
     11  N2         4.4560  -15.6430   -7.6260 N.am    1  MOL1       -0.3590
     12  C3         3.1810  -15.2380   -8.1360 C.2     1  MOL1        0.2220
     13  O4         2.1220  -15.6260   -7.5710 O.2     1  MOL1       -0.2750
     14  N7         5.3900  -15.0830   -9.8690 N.am    1  MOL1       -0.3460
     15  C8         6.2920  -16.0220  -10.4580 C.2     1  MOL1        0.2580
     16  O9         5.9680  -16.6440  -11.5040 O.2     1  MOL1       -0.2710
     17 C10         7.6380  -16.2680   -9.8460 C.3     1  MOL1        0.1670
     18 O11         7.5240  -17.1370   -8.7210 O.3     1  MOL1       -0.4800
     19 C12         8.1970  -18.3600   -8.6580 C.ar    1  MOL1        0.1660
     20 C13         7.4970  -19.5850   -8.7460 C.ar    1  MOL1        0.0120
     21 C21         8.2200  -20.7890   -8.7590 C.ar    1  MOL1       -0.0540
     22 C22         9.6100  -20.7810   -8.6370 C.ar    1  MOL1       -0.0580
     23 C23        10.2950  -19.5730   -8.4990 C.ar    1  MOL1       -0.0160
     24 C24         9.5930  -18.3540   -8.5050 C.ar    1  MOL1        0.1610
     25 C14         5.9870  -19.6360   -8.8260 C.3     1  MOL1        0.0280
     26 N15         5.4830  -20.9080   -8.2700 N.3     1  MOL1       -0.2870
     27 C16         4.2580  -21.3520   -8.9560 C.3     1  MOL1        0.0640
     28 C17         3.4080  -21.1670   -7.7150 C.3     1  MOL1        0.2720
     29 F18         2.9140  -22.3520   -7.1980 F       1  MOL1       -0.2040
     30 F19         2.4560  -20.1670   -7.8350 F       1  MOL1       -0.2040
     31 C20         4.6880  -20.7030   -7.0470 C.3     1  MOL1        0.0640
     32 O25        10.2430  -17.1190   -8.3680 O.3     1  MOL1       -0.4930
     33 C26        10.8440  -16.6530   -7.1640 C.3     1  MOL1        0.0780
@<TRIPOS>BOND
     1     3     4   ar
     2     3     2   ar
     3     4     5   ar
     4     2     1   ar
     5     5     6    1
     6     5     7   ar
     7    16    15    2
     8     1     7   ar
     9     1     8    1
    10    15    14   am
    11    15    17    1
    12     8    14    1
    13     8     9    1
    14    17    18    1
    15     9    12    1
    16    27    26    1
    17    27    28    1
    18    25    20    1
    19    25    26    1
    20    21    20   ar
    21    21    22   ar
    22    20    19   ar
    23    18    19    1
    24    19    24   ar
    25    22    23   ar
    26    24    23   ar
    27    24    32    1
    28    32    33    1
    29    26    31    1
    30    12    11   am
    31    12    13    2
    32    30    28    1
    33    28    29    1
    34    28    31    1
    35    11    10    1
