@<TRIPOS>MOLECULE
L3024_0_out.pdbqt
 33 35 0 0 0
SMALL
GASTEIGER

@<TRIPOS>ATOM
      1 C27        14.0390  -21.7540   -6.5700 C.ar    1  MOL1       -0.0240
      2 C28        14.3730  -21.1030   -5.3690 C.ar    1  MOL1       -0.0570
      3 C29        15.5740  -20.3940   -5.2600 C.ar    1  MOL1       -0.0610
      4 C30        16.4520  -20.3290   -6.3450 C.ar    1  MOL1       -0.0480
      5 C31        16.1300  -20.9700   -7.5460 C.ar    1  MOL1        0.0180
      6 Br32       17.3220  -20.8620   -9.0390 Br      1  MOL1       -0.0510
      7 C33        14.9330  -21.6840   -7.6580 C.ar    1  MOL1       -0.0430
      8  C6        12.7730  -22.5790   -6.6570 C.3     1  MOL1        0.0630
      9  C5        13.1220  -24.0780   -6.6980 C.3     1  MOL1        0.0510
     10  C1        12.5050  -25.5320  -10.2590 C.3     1  MOL1        0.0060
     11  N2        13.1180  -24.8620   -9.1220 N.am    1  MOL1       -0.3590
     12  C3        12.4570  -24.7660   -7.8550 C.2     1  MOL1        0.2220
     13  O4        11.3090  -25.2650   -7.7020 O.2     1  MOL1       -0.2750
     14  N7        11.9980  -22.1970   -7.8430 N.am    1  MOL1       -0.3460
     15  C8        11.0140  -21.1610   -7.8170 C.2     1  MOL1        0.2580
     16  O9        10.7730  -20.5400   -6.7480 O.2     1  MOL1       -0.2710
     17 C10        10.2680  -20.7920   -9.0650 C.3     1  MOL1        0.1670
     18 O11        10.5910  -19.4620   -9.4640 O.3     1  MOL1       -0.4800
     19 C12         9.6960  -18.4010   -9.3010 C.ar    1  MOL1        0.1660
     20 C13         9.9310  -17.3870   -8.3440 C.ar    1  MOL1        0.0120
     21 C21         9.0460  -16.2980   -8.2690 C.ar    1  MOL1       -0.0540
     22 C22         7.9230  -16.2400   -9.0940 C.ar    1  MOL1       -0.0580
     23 C23         7.6660  -17.2670  -10.0020 C.ar    1  MOL1       -0.0160
     24 C24         8.5480  -18.3580  -10.1100 C.ar    1  MOL1        0.1610
     25 C14        11.1080  -17.4430   -7.3970 C.3     1  MOL1        0.0280
     26 N15        12.3760  -17.2860   -8.1390 N.3     1  MOL1       -0.2870
     27 C16        13.3570  -18.3180   -7.7610 C.3     1  MOL1        0.0640
     28 C17        14.2930  -17.3020   -7.1370 C.3     1  MOL1        0.2720
     29 F18        15.4920  -17.1630   -7.8140 F       1  MOL1       -0.2040
     30 F19        14.4360  -17.4430   -5.7670 F       1  MOL1       -0.2040
     31 C20        13.2540  -16.2710   -7.5310 C.3     1  MOL1        0.0640
     32 O25         8.3260  -19.4110  -11.0090 O.3     1  MOL1       -0.4930
     33 C26         7.0700  -20.0530  -11.2030 C.3     1  MOL1        0.0780
@<TRIPOS>BOND
     1    33    32    1
     2    32    24    1
     3    10    11    1
     4    24    23   ar
     5    24    19   ar
     6    23    22   ar
     7    18    19    1
     8    18    17    1
     9    19    20   ar
    10    11    12   am
    11    22    21   ar
    12    17    15    1
    13     6     5    1
    14    20    21   ar
    15    20    25    1
    16    26    27    1
    17    26    31    1
    18    26    25    1
    19    12    13    2
    20    12     9    1
    21    14    15   am
    22    14     8    1
    23    15    16    2
    24    29    28    1
    25    27    28    1
    26     7     5   ar
    27     7     1   ar
    28     5     4   ar
    29    31    28    1
    30    28    30    1
    31     9     8    1
    32     8     1    1
    33     1     2   ar
    34     4     3   ar
    35     2     3   ar
