@<TRIPOS>MOLECULE
L3024_0_out.pdbqt
 33 35 0 0 0
SMALL
GASTEIGER

@<TRIPOS>ATOM
      1 C27        14.3850  -17.3910   -7.5210 C.ar    1  MOL1       -0.0240
      2 C28        14.3440  -16.2070   -8.2800 C.ar    1  MOL1       -0.0570
      3 C29        14.5010  -14.9630   -7.6590 C.ar    1  MOL1       -0.0610
      4 C30        14.7000  -14.8880   -6.2780 C.ar    1  MOL1       -0.0480
      5 C31        14.7460  -16.0580   -5.5120 C.ar    1  MOL1        0.0180
      6 Br32       15.0400  -15.9560   -3.6240 Br      1  MOL1       -0.0510
      7 C33        14.5840  -17.3030   -6.1280 C.ar    1  MOL1       -0.0430
      8  C6        14.1420  -18.7270   -8.1890 C.3     1  MOL1        0.0630
      9  C5        15.2350  -18.9990   -9.2380 C.3     1  MOL1        0.0510
     10  C1        18.3540  -20.7360   -7.6800 C.3     1  MOL1        0.0060
     11  N2        17.4180  -19.7210   -8.1440 N.am    1  MOL1       -0.3590
     12  C3        16.1840  -20.0680   -8.7800 C.2     1  MOL1        0.2220
     13  O4        15.8830  -21.2800   -8.9580 O.2     1  MOL1       -0.2750
     14  N7        12.8130  -18.7510   -8.8090 N.am    1  MOL1       -0.3460
     15  C8        11.8470  -19.7640   -8.5210 C.2     1  MOL1        0.2580
     16  O9        12.1220  -20.6910   -7.7140 O.2     1  MOL1       -0.2710
     17 C10        10.4930  -19.7260   -9.1640 C.3     1  MOL1        0.1670
     18 O11         9.6070  -20.6350   -8.5150 O.3     1  MOL1       -0.4800
     19 C12         8.4250  -21.0740   -9.1160 C.ar    1  MOL1        0.1660
     20 C13         7.2350  -20.3150   -9.0310 C.ar    1  MOL1        0.0120
     21 C21         6.0910  -20.7540   -9.7160 C.ar    1  MOL1       -0.0540
     22 C22         6.1110  -21.9500  -10.4340 C.ar    1  MOL1       -0.0580
     23 C23         7.2710  -22.7230  -10.4760 C.ar    1  MOL1       -0.0160
     24 C24         8.4360  -22.2930   -9.8140 C.ar    1  MOL1        0.1610
     25 C14         7.1600  -19.0410   -8.2180 C.3     1  MOL1        0.0280
     26 N15         5.9750  -18.2510   -8.6070 N.3     1  MOL1       -0.2870
     27 C16         6.3170  -16.8360   -8.8320 C.3     1  MOL1        0.0640
     28 C17         5.4930  -16.3720   -7.6480 C.3     1  MOL1        0.2720
     29 F18         4.3910  -15.6120   -8.0010 F       1  MOL1       -0.2040
     30 F19         6.2480  -15.8230   -6.6240 F       1  MOL1       -0.2040
     31 C20         5.1740  -17.8390   -7.4400 C.3     1  MOL1        0.0640
     32 O25         9.6220  -23.0410   -9.8310 O.3     1  MOL1       -0.4930
     33 C26         9.7010  -24.4330   -9.5420 C.3     1  MOL1        0.0780
@<TRIPOS>BOND
     1    23    22   ar
     2    23    24   ar
     3    22    21   ar
     4    32    24    1
     5    32    33    1
     6    24    19   ar
     7    21    20   ar
     8     9    12    1
     9     9     8    1
    10    17    15    1
    11    17    18    1
    12    19    20   ar
    13    19    18    1
    14    20    25    1
    15    13    12    2
    16    27    26    1
    17    27    28    1
    18    14    15   am
    19    14     8    1
    20    12    11   am
    21    26    25    1
    22    26    31    1
    23    15    16    2
    24     2     3   ar
    25     2     1   ar
    26     8     1    1
    27    11    10    1
    28    29    28    1
    29     3     4   ar
    30    28    31    1
    31    28    30    1
    32     1     7   ar
    33     4     5   ar
    34     7     5   ar
    35     5     6    1
