@<TRIPOS>MOLECULE
L3024_0_out.pdbqt
 33 35 0 0 0
SMALL
GASTEIGER

@<TRIPOS>ATOM
      1 C27         6.9010  -18.8100   -9.3810 C.ar    1  MOL1       -0.0240
      2 C28         6.0590  -18.6400   -8.2670 C.ar    1  MOL1       -0.0570
      3 C29         5.2110  -19.6750   -7.8560 C.ar    1  MOL1       -0.0610
      4 C30         5.1970  -20.8870   -8.5520 C.ar    1  MOL1       -0.0480
      5 C31         6.0320  -21.0700   -9.6600 C.ar    1  MOL1        0.0180
      6 Br32        6.0270  -22.7380  -10.5980 Br      1  MOL1       -0.0510
      7 C33         6.8760  -20.0360  -10.0770 C.ar    1  MOL1       -0.0430
      8  C6         7.7600  -17.6610   -9.8630 C.3     1  MOL1        0.0630
      9  C5         7.8980  -17.7120  -11.3950 C.3     1  MOL1        0.0510
     10  C1         5.3430  -14.8210  -11.9310 C.3     1  MOL1        0.0060
     11  N2         6.2670  -15.7580  -11.3080 N.am    1  MOL1       -0.3590
     12  C3         6.9430  -16.7670  -12.0660 C.2     1  MOL1        0.2220
     13  O4         6.7420  -16.8670  -13.3070 O.2     1  MOL1       -0.2750
     14  N7         9.0800  -17.7110   -9.2240 N.am    1  MOL1       -0.3460
     15  C8         9.4480  -16.8420   -8.1510 C.2     1  MOL1        0.2580
     16  O9         8.6340  -15.9830   -7.7220 O.2     1  MOL1       -0.2710
     17 C10        10.8020  -16.9530   -7.5160 C.3     1  MOL1        0.1670
     18 O11        11.5850  -17.9410   -8.1810 O.3     1  MOL1       -0.4800
     19 C12        12.1990  -18.9890   -7.4890 C.ar    1  MOL1        0.1660
     20 C13        13.4260  -18.7990   -6.8130 C.ar    1  MOL1        0.0120
     21 C21        13.9680  -19.8570   -6.0650 C.ar    1  MOL1       -0.0540
     22 C22        13.3290  -21.0970   -6.0270 C.ar    1  MOL1       -0.0580
     23 C23        12.1440  -21.2970   -6.7360 C.ar    1  MOL1       -0.0160
     24 C24        11.5720  -20.2460   -7.4760 C.ar    1  MOL1        0.1610
     25 C14        14.1750  -17.4860   -6.8750 C.3     1  MOL1        0.0280
     26 N15        14.9090  -17.3700   -8.1510 N.3     1  MOL1       -0.2870
     27 C16        16.3110  -17.7970   -8.0100 C.3     1  MOL1        0.0640
     28 C17        16.8390  -16.4000   -8.2720 C.3     1  MOL1        0.2720
     29 F18        17.5470  -16.2860   -9.4560 F       1  MOL1       -0.2040
     30 F19        17.4760  -15.8310   -7.1810 F       1  MOL1       -0.2040
     31 C20        15.3830  -15.9970   -8.3970 C.3     1  MOL1        0.0640
     32 O25        10.3840  -20.4060   -8.2030 O.3     1  MOL1       -0.4930
     33 C26        10.1460  -21.4540   -9.1370 C.3     1  MOL1        0.0780
@<TRIPOS>BOND
     1    13    12    2
     2    12     9    1
     3    12    11   am
     4    10    11    1
     5     9     8    1
     6     6     5    1
     7     7     5   ar
     8     7     1   ar
     9     8     1    1
    10     8    14    1
    11     5     4   ar
    12    29    28    1
    13     1     2   ar
    14    14    15   am
    15    33    32    1
    16     4     3   ar
    17    31    28    1
    18    31    26    1
    19    28    27    1
    20    28    30    1
    21     2     3   ar
    22    32    24    1
    23    18    17    1
    24    18    19    1
    25    26    27    1
    26    26    25    1
    27    15    16    2
    28    15    17    1
    29    19    24   ar
    30    19    20   ar
    31    24    23   ar
    32    25    20    1
    33    20    21   ar
    34    23    22   ar
    35    21    22   ar
