@<TRIPOS>MOLECULE
L3024_0_out.pdbqt
 33 35 0 0 0
SMALL
GASTEIGER

@<TRIPOS>ATOM
      1 C27         7.4870  -18.3530   -9.6730 C.ar    1  MOL1       -0.0240
      2 C28         7.5130  -17.5570  -10.8320 C.ar    1  MOL1       -0.0570
      3 C29         6.8150  -16.3450  -10.8750 C.ar    1  MOL1       -0.0610
      4 C30         6.0850  -15.9180   -9.7620 C.ar    1  MOL1       -0.0480
      5 C31         6.0530  -16.6980   -8.6010 C.ar    1  MOL1        0.0180
      6 Br32        5.0720  -16.1010   -7.0720 Br      1  MOL1       -0.0510
      7 C33         6.7450  -17.9130   -8.5580 C.ar    1  MOL1       -0.0430
      8  C6         8.1840  -19.6960   -9.6610 C.3     1  MOL1        0.0630
      9  C5         7.9460  -20.4020   -8.3130 C.3     1  MOL1        0.0510
     10  C1         4.4800  -21.8500   -7.2840 C.3     1  MOL1        0.0060
     11  N2         5.7170  -21.0830   -7.2880 N.am    1  MOL1       -0.3590
     12  C3         6.6850  -21.2160   -8.3340 C.2     1  MOL1        0.2220
     13  O4         6.4820  -22.0190   -9.2850 O.2     1  MOL1       -0.2750
     14  N7         9.6200  -19.5250   -9.9080 N.am    1  MOL1       -0.3460
     15  C8        10.4750  -18.8120   -9.0120 C.2     1  MOL1        0.2580
     16  O9        10.0050  -18.2890   -7.9660 O.2     1  MOL1       -0.2710
     17 C10        11.9410  -18.6890   -9.2990 C.3     1  MOL1        0.1670
     18 O11        12.6790  -18.5700   -8.0850 O.3     1  MOL1       -0.4800
     19 C12        14.0270  -18.9270   -7.9980 C.ar    1  MOL1        0.1660
     20 C13        15.0470  -17.9470   -8.0330 C.ar    1  MOL1        0.0120
     21 C21        16.3840  -18.3440   -7.8630 C.ar    1  MOL1       -0.0540
     22 C22        16.7090  -19.6920   -7.7110 C.ar    1  MOL1       -0.0580
     23 C23        15.7060  -20.6610   -7.7280 C.ar    1  MOL1       -0.0160
     24 C24        14.3570  -20.2860   -7.8760 C.ar    1  MOL1        0.1610
     25 C14        14.7370  -16.4820   -8.2490 C.3     1  MOL1        0.0280
     26 N15        15.0440  -15.7050   -7.0300 N.3     1  MOL1       -0.2870
     27 C16        14.2920  -16.2030   -5.8660 C.3     1  MOL1        0.0640
     28 C17        13.4820  -14.9270   -5.7510 C.3     1  MOL1        0.2720
     29 F18        13.7480  -14.2020   -4.6020 F       1  MOL1       -0.2040
     30 F19        12.1310  -15.0990   -6.0070 F       1  MOL1       -0.2040
     31 C20        14.2680  -14.4550   -6.9590 C.3     1  MOL1        0.0640
     32 O25        13.3200  -21.2290   -7.9000 O.3     1  MOL1       -0.4930
     33 C26        12.6730  -21.7440   -6.7410 C.3     1  MOL1        0.0780
@<TRIPOS>BOND
     1     3     2   ar
     2     3     4   ar
     3     2     1   ar
     4    14     8    1
     5    14    15   am
     6     4     5   ar
     7     1     8    1
     8     1     7   ar
     9     8     9    1
    10    17    15    1
    11    17    18    1
    12    13    12    2
    13    15    16    2
    14     5     7   ar
    15     5     6    1
    16    12     9    1
    17    12    11   am
    18    25    20    1
    19    25    26    1
    20    18    19    1
    21    20    19   ar
    22    20    21   ar
    23    19    24   ar
    24    32    24    1
    25    32    33    1
    26    24    23   ar
    27    21    22   ar
    28    23    22   ar
    29    11    10    1
    30    26    31    1
    31    26    27    1
    32    31    28    1
    33    30    28    1
    34    27    28    1
    35    28    29    1
