@<TRIPOS>MOLECULE
L3024_0_out.pdbqt
 33 35 0 0 0
SMALL
GASTEIGER

@<TRIPOS>ATOM
      1 C27        12.5400  -19.4190   -7.4850 C.ar    1  MOL1       -0.0240
      2 C28        12.5540  -18.0170   -7.3710 C.ar    1  MOL1       -0.0570
      3 C29        11.6520  -17.2390   -8.1050 C.ar    1  MOL1       -0.0610
      4 C30        10.7300  -17.8510   -8.9590 C.ar    1  MOL1       -0.0480
      5 C31        10.7040  -19.2450   -9.0790 C.ar    1  MOL1        0.0180
      6 Br32        9.4270  -20.0840  -10.2300 Br      1  MOL1       -0.0510
      7 C33        11.6070  -20.0260   -8.3500 C.ar    1  MOL1       -0.0430
      8  C6        13.5660  -20.2490   -6.7440 C.3     1  MOL1        0.0630
      9  C5        12.8740  -21.4130   -6.0120 C.3     1  MOL1        0.0510
     10  C1        12.8110  -24.8500   -7.8450 C.3     1  MOL1        0.0060
     11  N2        12.4100  -23.5610   -7.3010 N.am    1  MOL1       -0.3590
     12  C3        13.3150  -22.7430   -6.5520 C.2     1  MOL1        0.2220
     13  O4        14.4960  -23.1350   -6.3430 O.2     1  MOL1       -0.2750
     14  N7        14.3080  -19.4120   -5.7950 N.am    1  MOL1       -0.3460
     15  C8        15.7340  -19.3300   -5.7930 C.2     1  MOL1        0.2580
     16  O9        16.4100  -20.0000   -6.6190 O.2     1  MOL1       -0.2710
     17 C10        16.4420  -18.4380   -4.8180 C.3     1  MOL1        0.1670
     18 O11        16.8850  -17.2460   -5.4630 O.3     1  MOL1       -0.4800
     19 C12        16.0070  -16.4070   -6.1550 C.ar    1  MOL1        0.1660
     20 C13        15.0410  -15.6350   -5.4700 C.ar    1  MOL1        0.0120
     21 C21        14.2320  -14.7460   -6.1970 C.ar    1  MOL1       -0.0540
     22 C22        14.3460  -14.6600   -7.5850 C.ar    1  MOL1       -0.0580
     23 C23        15.2660  -15.4590   -8.2640 C.ar    1  MOL1       -0.0160
     24 C24        16.1000  -16.3430   -7.5550 C.ar    1  MOL1        0.1610
     25 C14        14.8520  -15.7410   -3.9730 C.3     1  MOL1        0.0280
     26 N15        15.2100  -14.4670   -3.3160 N.3     1  MOL1       -0.2870
     27 C16        15.9010  -14.6940   -2.0350 C.3     1  MOL1        0.0640
     28 C17        14.7630  -14.0940   -1.2320 C.3     1  MOL1        0.2720
     29 F18        15.0960  -12.9110   -0.5960 F       1  MOL1       -0.2040
     30 F19        14.1160  -15.0070   -0.4160 F       1  MOL1       -0.2040
     31 C20        14.0790  -13.8900   -2.5690 C.3     1  MOL1        0.0640
     32 O25        17.0370  -17.1640   -8.1990 O.3     1  MOL1       -0.4930
     33 C26        17.5100  -16.9570   -9.5260 C.3     1  MOL1        0.0780
@<TRIPOS>BOND
     1     6     5    1
     2    33    32    1
     3     5     4   ar
     4     5     7   ar
     5     4     3   ar
     6     7     1   ar
     7    23    22   ar
     8    23    24   ar
     9    32    24    1
    10     3     2   ar
    11    10    11    1
    12    22    21   ar
    13    24    19   ar
    14     1     2   ar
    15     1     8    1
    16    11    12   am
    17     8     9    1
    18     8    14    1
    19    16    15    2
    20    12    13    2
    21    12     9    1
    22    21    20   ar
    23    19    20   ar
    24    19    18    1
    25    14    15   am
    26    15    17    1
    27    20    25    1
    28    18    17    1
    29    25    26    1
    30    26    31    1
    31    26    27    1
    32    31    28    1
    33    27    28    1
    34    28    29    1
    35    28    30    1
