@<TRIPOS>MOLECULE
L3024_0_out.pdbqt
 33 35 0 0 0
SMALL
GASTEIGER

@<TRIPOS>ATOM
      1 C27         9.8660  -18.7260   -8.2320 C.ar    1  MOL1       -0.0240
      2 C28         9.7600  -17.3580   -8.5440 C.ar    1  MOL1       -0.0570
      3 C29         8.5230  -16.8060   -8.8920 C.ar    1  MOL1       -0.0610
      4 C30         7.3810  -17.6110   -8.9320 C.ar    1  MOL1       -0.0480
      5 C31         7.4720  -18.9720   -8.6200 C.ar    1  MOL1        0.0180
      6 Br32        5.9060  -20.0700   -8.6540 Br      1  MOL1       -0.0510
      7 C33         8.7090  -19.5290   -8.2770 C.ar    1  MOL1       -0.0430
      8  C6        11.2200  -19.3300   -7.9270 C.3     1  MOL1        0.0630
      9  C5        11.0570  -20.5490   -7.0020 C.3     1  MOL1        0.0510
     10  C1        14.1080  -22.8400   -7.7870 C.3     1  MOL1        0.0060
     11  N2        12.8540  -22.1110   -7.9070 N.am    1  MOL1       -0.3590
     12  C3        12.3490  -21.2970   -6.8430 C.2     1  MOL1        0.2220
     13  O4        12.9920  -21.1990   -5.7620 O.2     1  MOL1       -0.2750
     14  N7        12.0970  -18.3280   -7.3120 N.am    1  MOL1       -0.3460
     15  C8        13.4130  -18.0560   -7.7980 C.2     1  MOL1        0.2580
     16  O9        13.8700  -18.6910   -8.7850 O.2     1  MOL1       -0.2710
     17 C10        14.2580  -17.0020   -7.1470 C.3     1  MOL1        0.1670
     18 O11        14.8710  -17.5130   -5.9660 O.3     1  MOL1       -0.4800
     19 C12        16.2290  -17.3250   -5.6940 C.ar    1  MOL1        0.1660
     20 C13        16.6680  -16.2760   -4.8540 C.ar    1  MOL1        0.0120
     21 C21        18.0340  -16.1720   -4.5450 C.ar    1  MOL1       -0.0540
     22 C22        18.9550  -17.0620   -5.0960 C.ar    1  MOL1       -0.0580
     23 C23        18.5260  -18.0670   -5.9640 C.ar    1  MOL1       -0.0160
     24 C24        17.1590  -18.2030   -6.2730 C.ar    1  MOL1        0.1610
     25 C14        15.7060  -15.2590   -4.2810 C.3     1  MOL1        0.0280
     26 N15        15.0080  -15.8160   -3.1040 N.3     1  MOL1       -0.2870
     27 C16        13.9090  -14.9400   -2.6610 C.3     1  MOL1        0.0640
     28 C17        14.5970  -14.6170   -1.3500 C.3     1  MOL1        0.2720
     29 F18        13.9400  -15.1170   -0.2390 F       1  MOL1       -0.2040
     30 F19        14.9720  -13.2890   -1.2290 F       1  MOL1       -0.2040
     31 C20        15.7140  -15.5150   -1.8460 C.3     1  MOL1        0.0640
     32 O25        16.6870  -19.1970   -7.1420 O.3     1  MOL1       -0.4930
     33 C26        16.9380  -20.5900   -6.9840 C.3     1  MOL1        0.0780
@<TRIPOS>BOND
     1     4     3   ar
     2     4     5   ar
     3     3     2   ar
     4    16    15    2
     5     6     5    1
     6     5     7   ar
     7     2     1   ar
     8     7     1   ar
     9     1     8    1
    10     8    14    1
    11     8     9    1
    12    11    10    1
    13    11    12   am
    14    15    14   am
    15    15    17    1
    16    17    18    1
    17    32    33    1
    18    32    24    1
    19     9    12    1
    20    12    13    2
    21    24    23   ar
    22    24    19   ar
    23    18    19    1
    24    23    22   ar
    25    19    20   ar
    26    22    21   ar
    27    20    21   ar
    28    20    25    1
    29    25    26    1
    30    26    27    1
    31    26    31    1
    32    27    28    1
    33    31    28    1
    34    28    30    1
    35    28    29    1
