@<TRIPOS>MOLECULE
L3024_0_out.pdbqt
 33 35 0 0 0
SMALL
GASTEIGER

@<TRIPOS>ATOM
      1 C27         3.7550  -13.8190  -10.6800 C.ar    1  MOL1       -0.0240
      2 C28         2.4170  -14.2470  -10.5990 C.ar    1  MOL1       -0.0570
      3 C29         1.3720  -13.3500  -10.8430 C.ar    1  MOL1       -0.0610
      4 C30         1.6500  -12.0200  -11.1680 C.ar    1  MOL1       -0.0480
      5 C31         2.9760  -11.5820  -11.2560 C.ar    1  MOL1        0.0180
      6 Br32        3.3570   -9.7660  -11.7230 Br      1  MOL1       -0.0510
      7 C33         4.0240  -12.4750  -11.0080 C.ar    1  MOL1       -0.0430
      8  C6         4.8780  -14.7760  -10.3440 C.3     1  MOL1        0.0630
      9  C5         5.5550  -15.2690  -11.6360 C.3     1  MOL1        0.0510
     10  C1         8.2180  -18.1000  -11.8960 C.3     1  MOL1        0.0060
     11  N2         7.0580  -17.2590  -12.1530 N.am    1  MOL1       -0.3590
     12  C3         6.7540  -16.1220  -11.3380 C.2     1  MOL1        0.2220
     13  O4         7.4970  -15.8270  -10.3620 O.2     1  MOL1       -0.2750
     14  N7         4.3650  -15.9090   -9.5670 N.am    1  MOL1       -0.3460
     15  C8         4.8550  -16.2330   -8.2640 C.2     1  MOL1        0.2580
     16  O9         5.7700  -15.5440   -7.7400 O.2     1  MOL1       -0.2710
     17 C10         4.2760  -17.3870   -7.5010 C.3     1  MOL1        0.1670
     18 O11         5.2860  -18.3510   -7.2130 O.3     1  MOL1       -0.4800
     19 C12         5.6220  -19.3650   -8.1140 C.ar    1  MOL1        0.1660
     20 C13         4.7080  -20.3970   -8.4270 C.ar    1  MOL1        0.0120
     21 C21         5.0580  -21.3510   -9.3970 C.ar    1  MOL1       -0.0540
     22 C22         6.3100  -21.3100  -10.0110 C.ar    1  MOL1       -0.0580
     23 C23         7.2290  -20.3200   -9.6640 C.ar    1  MOL1       -0.0160
     24 C24         6.8940  -19.3420   -8.7090 C.ar    1  MOL1        0.1610
     25 C14         3.3630  -20.5040   -7.7440 C.3     1  MOL1        0.0280
     26 N15         2.6500  -21.7180   -8.1950 N.3     1  MOL1       -0.2870
     27 C16         1.3830  -21.3840   -8.8670 C.3     1  MOL1        0.0640
     28 C17         0.5500  -22.0280   -7.7770 C.3     1  MOL1        0.2720
     29 F18        -0.1370  -23.1540   -8.1950 F       1  MOL1       -0.2040
     30 F19        -0.2260  -21.1290   -7.0630 F       1  MOL1       -0.2040
     31 C20         1.8750  -22.3420   -7.1090 C.3     1  MOL1        0.0640
     32 O25         7.7890  -18.3310   -8.3310 O.3     1  MOL1       -0.4930
     33 C26         9.2070  -18.4510   -8.3820 C.3     1  MOL1        0.0780
@<TRIPOS>BOND
     1    11    10    1
     2    11    12   am
     3     6     5    1
     4     9    12    1
     5     9     8    1
     6    12    13    2
     7     5     4   ar
     8     5     7   ar
     9     4     3   ar
    10     7     1   ar
    11     3     2   ar
    12     1     2   ar
    13     1     8    1
    14     8    14    1
    15    22    23   ar
    16    22    21   ar
    17    23    24   ar
    18    14    15   am
    19    21    20   ar
    20    27    26    1
    21    27    28    1
    22    24    32    1
    23    24    19   ar
    24    20    19   ar
    25    20    25    1
    26    33    32    1
    27    15    16    2
    28    15    17    1
    29    26    25    1
    30    26    31    1
    31    29    28    1
    32    19    18    1
    33    28    31    1
    34    28    30    1
    35    17    18    1
