@<TRIPOS>MOLECULE
L3024_0_out.pdbqt
 33 35 0 0 0
SMALL
GASTEIGER

@<TRIPOS>ATOM
      1 C27        13.0740  -20.3190   -8.0610 C.ar    1  MOL1       -0.0240
      2 C28        12.1440  -21.3410   -7.7980 C.ar    1  MOL1       -0.0570
      3 C29        12.5550  -22.6780   -7.7580 C.ar    1  MOL1       -0.0610
      4 C30        13.8950  -23.0070   -7.9800 C.ar    1  MOL1       -0.0480
      5 C31        14.8310  -22.0000   -8.2390 C.ar    1  MOL1        0.0180
      6 Br32       16.6690  -22.4490   -8.5210 Br      1  MOL1       -0.0510
      7 C33        14.4230  -20.6630   -8.2850 C.ar    1  MOL1       -0.0430
      8  C6        12.6100  -18.8830   -8.1740 C.3     1  MOL1        0.0630
      9  C5        12.5460  -18.4650   -9.6540 C.3     1  MOL1        0.0510
     10  C1         8.6670  -18.1410   -9.8040 C.3     1  MOL1        0.0060
     11  N2        10.0420  -18.1340   -9.3260 N.am    1  MOL1       -0.3590
     12  C3        11.1380  -18.4920  -10.1740 C.2     1  MOL1        0.2220
     13  O4        10.9270  -18.8320  -11.3700 O.2     1  MOL1       -0.2750
     14  N7        13.5080  -17.9970   -7.4250 N.am    1  MOL1       -0.3460
     15  C8        13.0720  -16.7590   -6.8610 C.2     1  MOL1        0.2580
     16  O9        11.8790  -16.3800   -7.0050 O.2     1  MOL1       -0.2710
     17 C10        14.0260  -15.9030   -6.0820 C.3     1  MOL1        0.1670
     18 O11        14.6180  -16.6530   -5.0240 O.3     1  MOL1       -0.4800
     19 C12        15.8900  -16.3560   -4.5270 C.ar    1  MOL1        0.1660
     20 C13        17.0540  -16.8830   -5.1330 C.ar    1  MOL1        0.0120
     21 C21        18.3140  -16.4950   -4.6490 C.ar    1  MOL1       -0.0540
     22 C22        18.4190  -15.6380   -3.5540 C.ar    1  MOL1       -0.0580
     23 C23        17.2690  -15.1590   -2.9260 C.ar    1  MOL1       -0.0160
     24 C24        15.9950  -15.5180   -3.4050 C.ar    1  MOL1        0.1610
     25 C14        16.9790  -17.8570   -6.2880 C.3     1  MOL1        0.0280
     26 N15        17.7630  -17.3560   -7.4360 N.3     1  MOL1       -0.2870
     27 C16        16.9370  -16.5380   -8.3410 C.3     1  MOL1        0.0640
     28 C17        17.0510  -17.5420   -9.4710 C.3     1  MOL1        0.2720
     29 F18        17.7660  -17.0750  -10.5590 F       1  MOL1       -0.2040
     30 F19        15.8480  -18.1440   -9.8050 F       1  MOL1       -0.2040
     31 C20        17.8850  -18.3610   -8.5060 C.3     1  MOL1        0.0640
     32 O25        14.8150  -15.0590   -2.8020 O.3     1  MOL1       -0.4930
     33 C26        14.4260  -13.6910   -2.7320 C.3     1  MOL1        0.0780
@<TRIPOS>BOND
     1    13    12    2
     2    29    28    1
     3    12     9    1
     4    12    11   am
     5    30    28    1
     6    10    11    1
     7     9     8    1
     8    28    31    1
     9    28    27    1
    10     6     5    1
    11    31    26    1
    12    27    26    1
    13     7     5   ar
    14     7     1   ar
    15     5     4   ar
    16     8     1    1
    17     8    14    1
    18     1     2   ar
    19     4     3   ar
    20     2     3   ar
    21    26    25    1
    22    14    15   am
    23    16    15    2
    24    15    17    1
    25    25    20    1
    26    17    18    1
    27    20    21   ar
    28    20    19   ar
    29    18    19    1
    30    21    22   ar
    31    19    24   ar
    32    22    23   ar
    33    24    23   ar
    34    24    32    1
    35    32    33    1
