@<TRIPOS>MOLECULE
L3024_0_out.pdbqt
 33 35 0 0 0
SMALL
GASTEIGER

@<TRIPOS>ATOM
      1 C27        15.4580  -17.7310   -1.7140 C.ar    1  MOL1       -0.0240
      2 C28        14.9410  -16.7360   -0.8650 C.ar    1  MOL1       -0.0570
      3 C29        14.2030  -17.0880    0.2700 C.ar    1  MOL1       -0.0610
      4 C30        13.9750  -18.4340    0.5690 C.ar    1  MOL1       -0.0480
      5 C31        14.4860  -19.4340   -0.2660 C.ar    1  MOL1        0.0180
      6 Br32       14.1910  -21.2760    0.1560 Br      1  MOL1       -0.0510
      7 C33        15.2200  -19.0860   -1.4040 C.ar    1  MOL1       -0.0430
      8  C6        16.1920  -17.3410   -2.9790 C.3     1  MOL1        0.0630
      9  C5        16.2820  -15.8080   -3.0850 C.3     1  MOL1        0.0510
     10  C1        19.8690  -15.0630   -4.4100 C.3     1  MOL1        0.0060
     11  N2        18.7620  -15.4570   -3.5510 N.am    1  MOL1       -0.3590
     12  C3        17.4010  -15.3840   -3.9910 C.2     1  MOL1        0.2220
     13  O4        17.1340  -14.9630   -5.1500 O.2     1  MOL1       -0.2750
     14  N7        15.5150  -17.9010   -4.1530 N.am    1  MOL1       -0.3460
     15  C8        16.1890  -18.7160   -5.1140 C.2     1  MOL1        0.2580
     16  O9        17.4150  -18.9730   -4.9810 O.2     1  MOL1       -0.2710
     17 C10        15.4420  -19.2850   -6.2830 C.3     1  MOL1        0.1670
     18 O11        14.9760  -18.2400   -7.1340 O.3     1  MOL1       -0.4800
     19 C12        13.6260  -17.8830   -7.1990 C.ar    1  MOL1        0.1660
     20 C13        12.6320  -18.8380   -7.5120 C.ar    1  MOL1        0.0120
     21 C21        11.2810  -18.4530   -7.4890 C.ar    1  MOL1       -0.0540
     22 C22        10.9250  -17.1340   -7.2070 C.ar    1  MOL1       -0.0580
     23 C23        11.9110  -16.1820   -6.9470 C.ar    1  MOL1       -0.0160
     24 C24        13.2700  -16.5480   -6.9460 C.ar    1  MOL1        0.1610
     25 C14        12.9830  -20.2640   -7.8750 C.3     1  MOL1        0.0280
     26 N15        12.1990  -21.2120   -7.0570 N.3     1  MOL1       -0.2870
     27 C16        13.0160  -21.8120   -5.9890 C.3     1  MOL1        0.0640
     28 C17        12.9280  -23.1970   -6.5990 C.3     1  MOL1        0.2720
     29 F18        12.2120  -24.0980   -5.8300 F       1  MOL1       -0.2040
     30 F19        14.1430  -23.6850   -7.0510 F       1  MOL1       -0.2040
     31 C20        12.1010  -22.5400   -7.6870 C.3     1  MOL1        0.0640
     32 O25        14.2910  -15.6220   -6.6900 O.3     1  MOL1       -0.4930
     33 C26        14.4620  -14.3970   -7.3960 C.3     1  MOL1        0.0780
@<TRIPOS>BOND
     1    25    20    1
     2    25    26    1
     3    31    26    1
     4    31    28    1
     5    20    21   ar
     6    20    19   ar
     7    21    22   ar
     8    33    32    1
     9    22    23   ar
    10    19    18    1
    11    19    24   ar
    12    18    17    1
    13    26    27    1
    14    30    28    1
    15    23    24   ar
    16    24    32    1
    17    28    27    1
    18    28    29    1
    19    17    15    1
    20    13    12    2
    21    15    16    2
    22    15    14   am
    23    10    11    1
    24    14     8    1
    25    12    11   am
    26    12     9    1
    27     9     8    1
    28     8     1    1
    29     1     7   ar
    30     1     2   ar
    31     7     5   ar
    32     2     3   ar
    33     5     6    1
    34     5     4   ar
    35     3     4   ar
