@<TRIPOS>MOLECULE
L3024_0_out.pdbqt
 33 35 0 0 0
SMALL
GASTEIGER

@<TRIPOS>ATOM
      1 C27        14.3370  -17.7240    0.5530 C.ar    1  MOL1       -0.0240
      2 C28        13.0760  -18.0840    1.0640 C.ar    1  MOL1       -0.0570
      3 C29        12.7670  -19.4270    1.3040 C.ar    1  MOL1       -0.0610
      4 C30        13.7110  -20.4220    1.0370 C.ar    1  MOL1       -0.0480
      5 C31        14.9700  -20.0780    0.5310 C.ar    1  MOL1        0.0180
      6 Br32       16.2680  -21.4400    0.1860 Br      1  MOL1       -0.0510
      7 C33        15.2800  -18.7370    0.2850 C.ar    1  MOL1       -0.0430
      8  C6        14.6370  -16.2770    0.2280 C.3     1  MOL1        0.0630
      9  C5        14.0020  -15.3560    1.2850 C.3     1  MOL1        0.0510
     10  C1        17.4130  -14.0730    2.6620 C.3     1  MOL1        0.0060
     11  N2        16.3900  -14.6250    1.7850 N.am    1  MOL1       -0.3590
     12  C3        15.0360  -14.7930    2.2170 C.2     1  MOL1        0.2220
     13  O4        14.7010  -14.4660    3.3880 O.2     1  MOL1       -0.2750
     14  N7        14.1410  -15.9440   -1.1120 N.am    1  MOL1       -0.3460
     15  C8        14.7940  -14.9970   -1.9600 C.2     1  MOL1        0.2580
     16  O9        15.8330  -14.4020   -1.5670 O.2     1  MOL1       -0.2710
     17 C10        14.2590  -14.7130   -3.3320 C.3     1  MOL1        0.1670
     18 O11        14.6570  -15.7330   -4.2440 O.3     1  MOL1       -0.4800
     19 C12        15.2860  -15.4390   -5.4570 C.ar    1  MOL1        0.1660
     20 C13        14.5350  -15.1970   -6.6300 C.ar    1  MOL1        0.0120
     21 C21        15.2050  -14.8270   -7.8090 C.ar    1  MOL1       -0.0540
     22 C22        16.5980  -14.7470   -7.8360 C.ar    1  MOL1       -0.0580
     23 C23        17.3390  -15.0360   -6.6900 C.ar    1  MOL1       -0.0160
     24 C24        16.6890  -15.3890   -5.4930 C.ar    1  MOL1        0.1610
     25 C14        13.0280  -15.3260   -6.6530 C.3     1  MOL1        0.0280
     26 N15        12.6310  -16.7470   -6.5650 N.3     1  MOL1       -0.2870
     27 C16        13.3700  -17.5760   -7.5330 C.3     1  MOL1        0.0640
     28 C17        12.1170  -17.8960   -8.3250 C.3     1  MOL1        0.2720
     29 F18        11.7490  -19.2290   -8.2660 F       1  MOL1       -0.2040
     30 F19        12.1170  -17.3700   -9.6060 F       1  MOL1       -0.2040
     31 C20        11.3950  -17.0250   -7.3160 C.3     1  MOL1        0.0640
     32 O25        17.3980  -15.6870   -4.3200 O.3     1  MOL1       -0.4930
     33 C26        18.8020  -15.5120   -4.1610 C.3     1  MOL1        0.0780
@<TRIPOS>BOND
     1    30    28    1
     2    28    29    1
     3    28    27    1
     4    28    31    1
     5    22    21   ar
     6    22    23   ar
     7    21    20   ar
     8    27    26    1
     9    31    26    1
    10    23    24   ar
    11    25    20    1
    12    25    26    1
    13    20    19   ar
    14    24    19   ar
    15    24    32    1
    16    19    18    1
    17    32    33    1
    18    18    17    1
    19    17    15    1
    20    15    16    2
    21    15    14   am
    22    14     8    1
    23     6     5    1
    24     8     1    1
    25     8     9    1
    26     7     5   ar
    27     7     1   ar
    28     5     4   ar
    29     1     2   ar
    30     4     3   ar
    31     2     3   ar
    32     9    12    1
    33    11    12   am
    34    11    10    1
    35    12    13    2
