@<TRIPOS>MOLECULE
L3024_0_out.pdbqt
 33 35 0 0 0
SMALL
GASTEIGER

@<TRIPOS>ATOM
      1 C27        17.6040  -17.8720   -5.3500 C.ar    1  MOL1       -0.0240
      2 C28        18.7570  -17.0910   -5.1520 C.ar    1  MOL1       -0.0570
      3 C29        18.7190  -15.9730   -4.3110 C.ar    1  MOL1       -0.0610
      4 C30        17.5320  -15.6250   -3.6610 C.ar    1  MOL1       -0.0480
      5 C31        16.3790  -16.3950   -3.8460 C.ar    1  MOL1        0.0180
      6 Br32       14.7600  -15.9310   -2.9390 Br      1  MOL1       -0.0510
      7 C33        16.4120  -17.5100   -4.6900 C.ar    1  MOL1       -0.0430
      8  C6        17.6350  -19.0360   -6.3170 C.3     1  MOL1        0.0630
      9  C5        19.0690  -19.2560   -6.8320 C.3     1  MOL1        0.0510
     10  C1        18.4670  -23.0580   -7.4240 C.3     1  MOL1        0.0060
     11  N2        18.2560  -21.6540   -7.1010 N.am    1  MOL1       -0.3590
     12  C3        19.3200  -20.6990   -7.1610 C.2     1  MOL1        0.2220
     13  O4        20.4810  -21.0640   -7.4950 O.2     1  MOL1       -0.2750
     14  N7        16.7160  -18.7930   -7.4340 N.am    1  MOL1       -0.3460
     15  C8        15.4320  -19.4130   -7.5230 C.2     1  MOL1        0.2580
     16  O9        15.0500  -20.2130   -6.6270 O.2     1  MOL1       -0.2710
     17 C10        14.5210  -19.1090   -8.6740 C.3     1  MOL1        0.1670
     18 O11        14.4590  -17.7030   -8.9030 O.3     1  MOL1       -0.4800
     19 C12        13.8360  -16.8320   -8.0050 C.ar    1  MOL1        0.1660
     20 C13        12.5240  -17.0770   -7.5390 C.ar    1  MOL1        0.0120
     21 C21        11.9680  -16.2190   -6.5760 C.ar    1  MOL1       -0.0540
     22 C22        12.6800  -15.1100   -6.1190 C.ar    1  MOL1       -0.0580
     23 C23        13.9550  -14.8420   -6.6180 C.ar    1  MOL1       -0.0160
     24 C24        14.5420  -15.6990   -7.5680 C.ar    1  MOL1        0.1610
     25 C14        11.7010  -18.2390   -8.0500 C.3     1  MOL1        0.0280
     26 N15        10.8960  -17.8250   -9.2180 N.3     1  MOL1       -0.2870
     27 C16         9.5270  -18.3640   -9.1500 C.3     1  MOL1        0.0640
     28 C17         9.7360  -19.2480  -10.3640 C.3     1  MOL1        0.2720
     29 F18         8.9700  -18.8810  -11.4560 F       1  MOL1       -0.2040
     30 F19         9.6970  -20.6030  -10.0800 F       1  MOL1       -0.2040
     31 C20        11.1410  -18.6790  -10.3930 C.3     1  MOL1        0.0640
     32 O25        15.8200  -15.4640   -8.0940 O.3     1  MOL1       -0.4930
     33 C26        16.8910  -14.8640   -7.3730 C.3     1  MOL1        0.0780
@<TRIPOS>BOND
     1    29    28    1
     2    31    28    1
     3    31    26    1
     4    28    30    1
     5    28    27    1
     6    26    27    1
     7    26    25    1
     8    18    17    1
     9    18    19    1
    10    17    15    1
    11    32    24    1
    12    32    33    1
    13    25    20    1
    14    19    24   ar
    15    19    20   ar
    16    24    23   ar
    17    20    21   ar
    18    15    14   am
    19    15    16    2
    20    13    12    2
    21    14     8    1
    22    10    11    1
    23    12    11   am
    24    12     9    1
    25     9     8    1
    26    23    22   ar
    27    21    22   ar
    28     8     1    1
    29     1     2   ar
    30     1     7   ar
    31     2     3   ar
    32     7     5   ar
    33     3     4   ar
    34     5     4   ar
    35     5     6    1
