@<TRIPOS>MOLECULE
L3024_0_out.pdbqt
 33 35 0 0 0
SMALL
GASTEIGER

@<TRIPOS>ATOM
      1 C27         8.7410  -17.6870   -9.0140 C.ar    1  MOL1       -0.0240
      2 C28         8.7790  -16.6780   -8.0350 C.ar    1  MOL1       -0.0570
      3 C29         9.9930  -16.3060   -7.4480 C.ar    1  MOL1       -0.0610
      4 C30        11.1800  -16.9370   -7.8310 C.ar    1  MOL1       -0.0480
      5 C31        11.1570  -17.9410   -8.8060 C.ar    1  MOL1        0.0180
      6 Br32       12.7850  -18.7890   -9.3460 Br      1  MOL1       -0.0510
      7 C33         9.9440  -18.3190   -9.3920 C.ar    1  MOL1       -0.0430
      8  C6         7.4150  -18.1340   -9.5910 C.3     1  MOL1        0.0630
      9  C5         7.6500  -19.0150  -10.8320 C.3     1  MOL1        0.0510
     10  C1         5.2070  -21.7690   -9.5600 C.3     1  MOL1        0.0060
     11  N2         5.9740  -20.5360   -9.6650 N.am    1  MOL1       -0.3590
     12  C3         6.8810  -20.3020  -10.7470 C.2     1  MOL1        0.2220
     13  O4         7.0390  -21.1770  -11.6410 O.2     1  MOL1       -0.2750
     14  N7         6.5920  -16.9690   -9.9330 N.am    1  MOL1       -0.3460
     15  C8         6.4240  -16.5140  -11.2770 C.2     1  MOL1        0.2580
     16  O9         7.0010  -17.1090  -12.2260 O.2     1  MOL1       -0.2710
     17 C10         5.5490  -15.3330  -11.5740 C.3     1  MOL1        0.1670
     18 O11         5.2100  -14.6480  -10.3710 O.3     1  MOL1       -0.4800
     19 C12         3.8850  -14.4950   -9.9530 C.ar    1  MOL1        0.1660
     20 C13         2.9270  -13.8630  -10.7780 C.ar    1  MOL1        0.0120
     21 C21         1.5900  -13.8020  -10.3520 C.ar    1  MOL1       -0.0540
     22 C22         1.2180  -14.3140   -9.1090 C.ar    1  MOL1       -0.0580
     23 C23         2.1750  -14.8920   -8.2750 C.ar    1  MOL1       -0.0160
     24 C24         3.5170  -14.9830   -8.6880 C.ar    1  MOL1        0.1610
     25 C14         3.3020  -13.2500  -12.1090 C.3     1  MOL1        0.0280
     26 N15         3.8000  -11.8720  -11.9190 N.3     1  MOL1       -0.2870
     27 C16         2.9860  -11.1310  -10.9410 C.3     1  MOL1        0.0640
     28 C17         2.4770  -10.1610  -11.9890 C.3     1  MOL1        0.2720
     29 F18         2.9210   -8.8630  -11.8080 F       1  MOL1       -0.2040
     30 F19         1.1150  -10.2610  -12.2260 F       1  MOL1       -0.2040
     31 C20         3.3180  -10.9570  -12.9680 C.3     1  MOL1        0.0640
     32 O25         4.5090  -15.5550   -7.8790 O.3     1  MOL1       -0.4930
     33 C26         4.4390  -15.6460   -6.4600 C.3     1  MOL1        0.0780
@<TRIPOS>BOND
     1    31    28    1
     2    31    26    1
     3    30    28    1
     4    16    15    2
     5    25    26    1
     6    25    20    1
     7    28    29    1
     8    28    27    1
     9    26    27    1
    10    13    12    2
    11    17    15    1
    12    17    18    1
    13    15    14   am
    14     9    12    1
    15     9     8    1
    16    20    21   ar
    17    20    19   ar
    18    12    11   am
    19    18    19    1
    20    21    22   ar
    21    19    24   ar
    22    14     8    1
    23    11    10    1
    24     8     1    1
    25     7     1   ar
    26     7     5   ar
    27     6     5    1
    28    22    23   ar
    29     1     2   ar
    30     5     4   ar
    31    24    23   ar
    32    24    32    1
    33     2     3   ar
    34    32    33    1
    35     4     3   ar
