@<TRIPOS>MOLECULE
L3024_0_out.pdbqt
 33 35 0 0 0
SMALL
GASTEIGER

@<TRIPOS>ATOM
      1 C27         9.4440  -18.0700   -9.1900 C.ar    1  MOL1       -0.0240
      2 C28         8.9120  -17.1740   -8.2450 C.ar    1  MOL1       -0.0570
      3 C29         7.8380  -16.3440   -8.5830 C.ar    1  MOL1       -0.0610
      4 C30         7.2860  -16.3990   -9.8660 C.ar    1  MOL1       -0.0480
      5 C31         7.8030  -17.2880  -10.8140 C.ar    1  MOL1        0.0180
      6 Br32        7.0320  -17.3780  -12.5630 Br      1  MOL1       -0.0510
      7 C33         8.8800  -18.1160  -10.4820 C.ar    1  MOL1       -0.0430
      8  C6        10.6510  -18.9130   -8.8400 C.3     1  MOL1        0.0630
      9  C5        10.2150  -20.1520   -8.0370 C.3     1  MOL1        0.0510
     10  C1         9.5110  -22.8650  -10.7420 C.3     1  MOL1        0.0060
     11  N2         9.4170  -21.6630   -9.9260 N.am    1  MOL1       -0.3590
     12  C3        10.3310  -21.4060   -8.8540 C.2     1  MOL1        0.2220
     13  O4        11.2460  -22.2340   -8.5900 O.2     1  MOL1       -0.2750
     14  N7        11.6210  -18.1190   -8.0770 N.am    1  MOL1       -0.3460
     15  C8        13.0330  -18.2750   -8.2310 C.2     1  MOL1        0.2580
     16  O9        13.4940  -19.1270   -9.0370 O.2     1  MOL1       -0.2710
     17 C10        13.9800  -17.4190   -7.4450 C.3     1  MOL1        0.1670
     18 O11        15.3050  -17.5410   -7.9570 O.3     1  MOL1       -0.4800
     19 C12        16.4200  -17.6230   -7.1180 C.ar    1  MOL1        0.1660
     20 C13        17.0940  -18.8490   -6.9150 C.ar    1  MOL1        0.0120
     21 C21        18.2570  -18.8690   -6.1270 C.ar    1  MOL1       -0.0540
     22 C22        18.7150  -17.7040   -5.5110 C.ar    1  MOL1       -0.0580
     23 C23        18.0200  -16.5060   -5.6720 C.ar    1  MOL1       -0.0160
     24 C24        16.8640  -16.4570   -6.4730 C.ar    1  MOL1        0.1610
     25 C14        16.5970  -20.1420   -7.5230 C.3     1  MOL1        0.0280
     26 N15        16.1500  -21.0700   -6.4640 N.3     1  MOL1       -0.2870
     27 C16        16.3130  -22.4760   -6.8730 C.3     1  MOL1        0.0640
     28 C17        14.8170  -22.7220   -6.8860 C.3     1  MOL1        0.2720
     29 F18        14.3920  -23.6080   -5.9110 F       1  MOL1       -0.2040
     30 F19        14.3070  -22.9870   -8.1460 F       1  MOL1       -0.2040
     31 C20        14.6900  -21.2670   -6.4780 C.3     1  MOL1        0.0640
     32 O25        16.1360  -15.2730   -6.6600 O.3     1  MOL1       -0.4930
     33 C26        16.1630  -14.4880   -7.8480 C.3     1  MOL1        0.0780
@<TRIPOS>BOND
     1     6     5    1
     2     5     7   ar
     3     5     4   ar
     4    10    11    1
     5     7     1   ar
     6    11    12   am
     7     4     3   ar
     8     1     8    1
     9     1     2   ar
    10    16    15    2
    11    12    13    2
    12    12     9    1
    13     8    14    1
    14     8     9    1
    15     3     2   ar
    16    15    14   am
    17    15    17    1
    18    30    28    1
    19    18    17    1
    20    18    19    1
    21    33    32    1
    22    25    20    1
    23    25    26    1
    24    19    20   ar
    25    19    24   ar
    26    20    21   ar
    27    28    27    1
    28    28    31    1
    29    28    29    1
    30    27    26    1
    31    32    24    1
    32    31    26    1
    33    24    23   ar
    34    21    22   ar
    35    23    22   ar
