@<TRIPOS>MOLECULE
L3024_0_out.pdbqt
 33 35 0 0 0
SMALL
GASTEIGER

@<TRIPOS>ATOM
      1 C27         7.2330  -16.9800  -10.0720 C.ar    1  MOL1       -0.0240
      2 C28         7.7130  -17.9030  -11.0190 C.ar    1  MOL1       -0.0570
      3 C29         7.3810  -17.7660  -12.3710 C.ar    1  MOL1       -0.0610
      4 C30         6.5690  -16.7080  -12.7900 C.ar    1  MOL1       -0.0480
      5 C31         6.0880  -15.7820  -11.8590 C.ar    1  MOL1        0.0180
      6 Br32        4.9940  -14.3220  -12.4370 Br      1  MOL1       -0.0510
      7 C33         6.4130  -15.9180  -10.5050 C.ar    1  MOL1       -0.0430
      8  C6         7.5370  -17.1760   -8.6020 C.3     1  MOL1        0.0630
      9  C5         6.3990  -16.5910   -7.7460 C.3     1  MOL1        0.0510
     10  C1         4.5140  -19.9960   -7.5870 C.3     1  MOL1        0.0060
     11  N2         5.5260  -18.9810   -7.8450 N.am    1  MOL1       -0.3590
     12  C3         5.3320  -17.6120   -7.4750 C.2     1  MOL1        0.2220
     13  O4         4.2610  -17.2530   -6.9150 O.2     1  MOL1       -0.2750
     14  N7         8.8170  -16.5480   -8.2590 N.am    1  MOL1       -0.3460
     15  C8         9.9770  -17.3070   -7.9090 C.2     1  MOL1        0.2580
     16  O9         9.9260  -18.5650   -7.8750 O.2     1  MOL1       -0.2710
     17 C10        11.2680  -16.6150   -7.5920 C.3     1  MOL1        0.1670
     18 O11        12.2460  -17.5570   -7.1580 O.3     1  MOL1       -0.4800
     19 C12        13.5100  -17.6390   -7.7470 C.ar    1  MOL1        0.1660
     20 C13        14.4120  -16.5510   -7.6960 C.ar    1  MOL1        0.0120
     21 C21        15.7020  -16.7040   -8.2320 C.ar    1  MOL1       -0.0540
     22 C22        16.0740  -17.8970   -8.8510 C.ar    1  MOL1       -0.0580
     23 C23        15.1650  -18.9520   -8.9450 C.ar    1  MOL1       -0.0160
     24 C24        13.8750  -18.8290   -8.3970 C.ar    1  MOL1        0.1610
     25 C14        14.0260  -15.2240   -7.0810 C.3     1  MOL1        0.0280
     26 N15        14.7520  -15.0130   -5.8120 N.3     1  MOL1       -0.2870
     27 C16        14.3640  -16.0050   -4.7940 C.3     1  MOL1        0.0640
     28 C17        13.7270  -14.9530   -3.9070 C.3     1  MOL1        0.2720
     29 F18        14.3880  -14.7630   -2.7070 F       1  MOL1       -0.2040
     30 F19        12.3540  -15.0910   -3.7760 F       1  MOL1       -0.2040
     31 C20        14.1320  -13.9650   -4.9840 C.3     1  MOL1        0.0640
     32 O25        12.9320  -19.8640   -8.4720 O.3     1  MOL1       -0.4930
     33 C26        13.0750  -21.1310   -7.8370 C.3     1  MOL1        0.0780
@<TRIPOS>BOND
     1     4     3   ar
     2     4     5   ar
     3     6     5    1
     4     3     2   ar
     5     5     7   ar
     6     2     1   ar
     7     7     1   ar
     8     1     8    1
     9    23    22   ar
    10    23    24   ar
    11    22    21   ar
    12     8    14    1
    13     8     9    1
    14    32    24    1
    15    32    33    1
    16    24    19   ar
    17    14    15   am
    18    21    20   ar
    19    15    16    2
    20    15    17    1
    21    11    10    1
    22    11    12   am
    23    19    20   ar
    24    19    18    1
    25     9    12    1
    26    20    25    1
    27    17    18    1
    28    12    13    2
    29    25    26    1
    30    26    31    1
    31    26    27    1
    32    31    28    1
    33    27    28    1
    34    28    30    1
    35    28    29    1
