@<TRIPOS>MOLECULE
L3024_0_out.pdbqt
 33 35 0 0 0
SMALL
GASTEIGER

@<TRIPOS>ATOM
      1 C27         6.2120  -20.2380   -8.9040 C.ar    1  MOL1       -0.0240
      2 C28         6.5870  -21.0230  -10.0100 C.ar    1  MOL1       -0.0570
      3 C29         5.6870  -21.9400  -10.5640 C.ar    1  MOL1       -0.0610
      4 C30         4.4080  -22.0840  -10.0200 C.ar    1  MOL1       -0.0480
      5 C31         4.0220  -21.3070   -8.9220 C.ar    1  MOL1        0.0180
      6 Br32        2.2630  -21.4880   -8.1920 Br      1  MOL1       -0.0510
      7 C33         4.9200  -20.3920   -8.3630 C.ar    1  MOL1       -0.0430
      8  C6         7.2150  -19.3010   -8.2670 C.3     1  MOL1        0.0630
      9  C5         6.7200  -17.8470   -8.3730 C.3     1  MOL1        0.0510
     10  C1         7.0190  -17.0130  -12.1660 C.3     1  MOL1        0.0060
     11  N2         6.6130  -17.6230  -10.9080 N.am    1  MOL1       -0.3590
     12  C3         7.1660  -17.2060   -9.6550 C.2     1  MOL1        0.2220
     13  O4         8.0340  -16.2910   -9.6200 O.2     1  MOL1       -0.2750
     14  N7         8.5270  -19.4470   -8.9070 N.am    1  MOL1       -0.3460
     15  C8         9.6960  -19.8390   -8.1840 C.2     1  MOL1        0.2580
     16  O9         9.6320  -20.0650   -6.9470 O.2     1  MOL1       -0.2710
     17 C10        11.0070  -20.0000   -8.8930 C.3     1  MOL1        0.1670
     18 O11        12.0850  -19.6260   -8.0390 O.3     1  MOL1       -0.4800
     19 C12        13.3390  -20.2380   -8.1160 C.ar    1  MOL1        0.1660
     20 C13        14.5090  -19.4800   -8.3550 C.ar    1  MOL1        0.0120
     21 C21        15.7570  -20.1250   -8.3460 C.ar    1  MOL1       -0.0540
     22 C22        15.8390  -21.5040   -8.1520 C.ar    1  MOL1       -0.0580
     23 C23        14.6800  -22.2570   -7.9670 C.ar    1  MOL1       -0.0160
     24 C24        13.4200  -21.6300   -7.9520 C.ar    1  MOL1        0.1610
     25 C14        14.4540  -17.9920   -8.6220 C.3     1  MOL1        0.0280
     26 N15        14.4440  -17.2400   -7.3500 N.3     1  MOL1       -0.2870
     27 C16        13.3560  -16.2490   -7.3150 C.3     1  MOL1        0.0640
     28 C17        14.3210  -15.0810   -7.3040 C.3     1  MOL1        0.2720
     29 F18        14.3040  -14.3570   -6.1240 F       1  MOL1       -0.2040
     30 F19        14.2600  -14.2960   -8.4440 F       1  MOL1       -0.2040
     31 C20        15.4130  -16.1310   -7.3540 C.3     1  MOL1        0.0640
     32 O25        12.2310  -22.3510   -7.7710 O.3     1  MOL1       -0.4930
     33 C26        12.0920  -23.7480   -8.0040 C.3     1  MOL1        0.0780
@<TRIPOS>BOND
     1    10    11    1
     2    11    12   am
     3     3     4   ar
     4     3     2   ar
     5     4     5   ar
     6     2     1   ar
     7    12    13    2
     8    12     9    1
     9     5     7   ar
    10     5     6    1
    11    14     8    1
    12    14    15   am
    13     1     7   ar
    14     1     8    1
    15    17    15    1
    16    17    18    1
    17    25    20    1
    18    25    26    1
    19    30    28    1
    20     9     8    1
    21    20    21   ar
    22    20    19   ar
    23    21    22   ar
    24    15    16    2
    25    22    23   ar
    26    19    18    1
    27    19    24   ar
    28    33    32    1
    29    23    24   ar
    30    24    32    1
    31    31    26    1
    32    31    28    1
    33    26    27    1
    34    27    28    1
    35    28    29    1
