@<TRIPOS>MOLECULE
L3024_0_out.pdbqt
 33 35 0 0 0
SMALL
GASTEIGER

@<TRIPOS>ATOM
      1 C27         5.3050  -20.8920   -8.0170 C.ar    1  MOL1       -0.0240
      2 C28         4.8160  -21.1610   -6.7250 C.ar    1  MOL1       -0.0570
      3 C29         3.6080  -21.8450   -6.5540 C.ar    1  MOL1       -0.0610
      4 C30         2.8780  -22.2670   -7.6690 C.ar    1  MOL1       -0.0480
      5 C31         3.3540  -22.0090   -8.9590 C.ar    1  MOL1        0.0180
      6 Br32        2.3650  -22.6070  -10.4830 Br      1  MOL1       -0.0510
      7 C33         4.5590  -21.3200   -9.1330 C.ar    1  MOL1       -0.0430
      8  C6         6.5750  -20.0880   -8.1930 C.3     1  MOL1        0.0630
      9  C5         6.3060  -18.8670   -9.0910 C.3     1  MOL1        0.0510
     10  C1         5.1390  -16.0470   -6.6710 C.3     1  MOL1        0.0060
     11  N2         5.1770  -17.2700   -7.4600 N.am    1  MOL1       -0.3590
     12  C3         6.2920  -17.5920   -8.2980 C.2     1  MOL1        0.2220
     13  O4         7.2750  -16.8060   -8.3730 O.2     1  MOL1       -0.2750
     14  N7         7.6330  -20.9270   -8.7670 N.am    1  MOL1       -0.3460
     15  C8         9.0210  -20.6200   -8.6250 C.2     1  MOL1        0.2580
     16  O9         9.3820  -19.5890   -7.9970 O.2     1  MOL1       -0.2710
     17 C10        10.0620  -21.5260   -9.2090 C.3     1  MOL1        0.1670
     18 O11        10.7000  -22.2810   -8.1810 O.3     1  MOL1       -0.4800
     19 C12        12.0760  -22.5240   -8.1860 C.ar    1  MOL1        0.1660
     20 C13        12.9830  -21.6050   -7.6100 C.ar    1  MOL1        0.0120
     21 C21        14.3500  -21.9270   -7.5660 C.ar    1  MOL1       -0.0540
     22 C22        14.8150  -23.1170   -8.1260 C.ar    1  MOL1       -0.0580
     23 C23        13.9250  -23.9990   -8.7380 C.ar    1  MOL1       -0.0160
     24 C24        12.5490  -23.7070   -8.7770 C.ar    1  MOL1        0.1610
     25 C14        12.5220  -20.2810   -7.0410 C.3     1  MOL1        0.0280
     26 N15        13.3940  -19.1860   -7.5120 N.3     1  MOL1       -0.2870
     27 C16        12.8500  -17.8660   -7.1490 C.3     1  MOL1        0.0640
     28 C17        12.6050  -17.4870   -8.5960 C.3     1  MOL1        0.2720
     29 F18        13.4030  -16.4470   -9.0400 F       1  MOL1       -0.2040
     30 F19        11.2650  -17.3430   -8.9150 F       1  MOL1       -0.2040
     31 C20        13.1590  -18.8590   -8.9290 C.3     1  MOL1        0.0640
     32 O25        11.6210  -24.5670   -9.3830 O.3     1  MOL1       -0.4930
     33 C26        11.7980  -25.1700  -10.6610 C.3     1  MOL1        0.0780
@<TRIPOS>BOND
     1    33    32    1
     2     6     5    1
     3    32    24    1
     4    17    15    1
     5    17    18    1
     6     7     5   ar
     7     7     1   ar
     8     9    12    1
     9     9     8    1
    10    29    28    1
    11     5     4   ar
    12    31    28    1
    13    31    26    1
    14    30    28    1
    15    24    23   ar
    16    24    19   ar
    17    14    15   am
    18    14     8    1
    19    23    22   ar
    20    15    16    2
    21    28    27    1
    22    13    12    2
    23    12    11   am
    24     8     1    1
    25    19    18    1
    26    19    20   ar
    27    22    21   ar
    28     1     2   ar
    29     4     3   ar
    30    20    21   ar
    31    20    25    1
    32    26    27    1
    33    26    25    1
    34    11    10    1
    35     2     3   ar
