@<TRIPOS>MOLECULE
L3024_0_out.pdbqt
 33 35 0 0 0
SMALL
GASTEIGER

@<TRIPOS>ATOM
      1 C27        16.4270  -17.7920   -6.5340 C.ar    1  MOL1       -0.0240
      2 C28        17.5780  -17.5860   -5.7520 C.ar    1  MOL1       -0.0570
      3 C29        18.7440  -18.3170   -6.0020 C.ar    1  MOL1       -0.0610
      4 C30        18.7720  -19.2610   -7.0330 C.ar    1  MOL1       -0.0480
      5 C31        17.6350  -19.4730   -7.8200 C.ar    1  MOL1        0.0180
      6 Br32       17.6810  -20.7490   -9.2450 Br      1  MOL1       -0.0510
      7 C33        16.4660  -18.7470   -7.5690 C.ar    1  MOL1       -0.0430
      8  C6        15.1480  -17.0490   -6.2100 C.3     1  MOL1        0.0630
      9  C5        14.8470  -17.1500   -4.7040 C.3     1  MOL1        0.0510
     10  C1        14.9670  -14.4270   -1.9210 C.3     1  MOL1        0.0060
     11  N2        14.8460  -15.7060   -2.6060 N.am    1  MOL1       -0.3590
     12  C3        14.9660  -15.8140   -4.0280 C.2     1  MOL1        0.2220
     13  O4        15.1780  -14.7850   -4.7250 O.2     1  MOL1       -0.2750
     14  N7        14.0340  -17.5880   -6.9970 N.am    1  MOL1       -0.3460
     15  C8        12.8240  -16.8610   -7.2150 C.2     1  MOL1        0.2580
     16  O9        12.6740  -15.7130   -6.7180 O.2     1  MOL1       -0.2710
     17 C10        11.7260  -17.4490   -8.0500 C.3     1  MOL1        0.1670
     18 O11        11.0360  -18.4630   -7.3240 O.3     1  MOL1       -0.4800
     19 C12        10.6070  -19.6470   -7.9310 C.ar    1  MOL1        0.1660
     20 C13         9.3270  -19.7420   -8.5240 C.ar    1  MOL1        0.0120
     21 C21         8.9680  -20.9250   -9.1920 C.ar    1  MOL1       -0.0540
     22 C22         9.8420  -22.0110   -9.2290 C.ar    1  MOL1       -0.0580
     23 C23        11.0850  -21.9320   -8.5990 C.ar    1  MOL1       -0.0160
     24 C24        11.4750  -20.7510   -7.9410 C.ar    1  MOL1        0.1610
     25 C14         8.3320  -18.6050   -8.4580 C.3     1  MOL1        0.0280
     26 N15         8.4000  -17.7890   -9.6870 N.3     1  MOL1       -0.2870
     27 C16         8.1280  -16.3680   -9.4100 C.3     1  MOL1        0.0640
     28 C17         6.8410  -16.3820  -10.2090 C.3     1  MOL1        0.2720
     29 F18         6.8880  -15.6030  -11.3520 F       1  MOL1       -0.2040
     30 F19         5.7050  -16.1830   -9.4410 F       1  MOL1       -0.2040
     31 C20         7.1480  -17.8450  -10.4620 C.3     1  MOL1        0.0640
     32 O25        12.7140  -20.6320   -7.2960 O.3     1  MOL1       -0.4930
     33 C26        13.8300  -21.4840   -7.5310 C.3     1  MOL1        0.0780
@<TRIPOS>BOND
     1    29    28    1
     2    31    28    1
     3    31    26    1
     4    28    30    1
     5    28    27    1
     6    26    27    1
     7    26    25    1
     8     6     5    1
     9    22    21   ar
    10    22    23   ar
    11    21    20   ar
    12    23    24   ar
    13    20    25    1
    14    20    19   ar
    15    17    18    1
    16    17    15    1
    17    24    19   ar
    18    24    32    1
    19    19    18    1
    20     5     7   ar
    21     5     4   ar
    22     7     1   ar
    23    33    32    1
    24    15    14   am
    25    15    16    2
    26     4     3   ar
    27    14     8    1
    28     1     8    1
    29     1     2   ar
    30     8     9    1
    31     3     2   ar
    32    13    12    2
    33     9    12    1
    34    12    11   am
    35    11    10    1
