@<TRIPOS>MOLECULE
L3024_0_out.pdbqt
 33 35 0 0 0
SMALL
GASTEIGER

@<TRIPOS>ATOM
      1 C27         7.2270  -16.6130  -10.2430 C.ar    1  MOL1       -0.0240
      2 C28         7.6080  -17.4310  -11.3220 C.ar    1  MOL1       -0.0570
      3 C29         7.0880  -17.2040  -12.6000 C.ar    1  MOL1       -0.0610
      4 C30         6.1830  -16.1610  -12.8140 C.ar    1  MOL1       -0.0480
      5 C31         5.7980  -15.3380  -11.7500 C.ar    1  MOL1        0.0180
      6 Br32        4.5760  -13.8960  -12.0480 Br      1  MOL1       -0.0510
      7 C33         6.3120  -15.5650  -10.4690 C.ar    1  MOL1       -0.0430
      8  C6         7.7380  -16.9100   -8.8500 C.3     1  MOL1        0.0630
      9  C5         8.8500  -17.9730   -8.9110 C.3     1  MOL1        0.0510
     10  C1        11.4370  -16.0660   -6.7110 C.3     1  MOL1        0.0060
     11  N2        10.1880  -16.5930   -7.2400 N.am    1  MOL1       -0.3590
     12  C3        10.1540  -17.4360   -8.3970 C.2     1  MOL1        0.2220
     13  O4        11.2250  -17.7370   -8.9910 O.2     1  MOL1       -0.2750
     14  N7         6.6390  -17.3620   -7.9900 N.am    1  MOL1       -0.3460
     15  C8         5.8850  -18.5450   -8.2640 C.2     1  MOL1        0.2580
     16  O9         6.1450  -19.2420   -9.2810 O.2     1  MOL1       -0.2710
     17 C10         4.7880  -18.9770   -7.3380 C.3     1  MOL1        0.1670
     18 O11         4.6990  -20.3990   -7.2990 O.3     1  MOL1       -0.4800
     19 C12         4.1360  -21.1360   -8.3450 C.ar    1  MOL1        0.1660
     20 C13         4.9470  -21.8670   -9.2430 C.ar    1  MOL1        0.0120
     21 C21         4.3360  -22.6570  -10.2310 C.ar    1  MOL1       -0.0540
     22 C22         2.9470  -22.6830  -10.3570 C.ar    1  MOL1       -0.0580
     23 C23         2.1510  -21.9210   -9.5020 C.ar    1  MOL1       -0.0160
     24 C24         2.7400  -21.1380   -8.4920 C.ar    1  MOL1        0.1610
     25 C14         6.4580  -21.8210   -9.1710 C.3     1  MOL1        0.0280
     26 N15         7.0510  -22.6340  -10.2520 N.3     1  MOL1       -0.2870
     27 C16         8.2880  -23.3010   -9.8110 C.3     1  MOL1        0.0640
     28 C17         9.1490  -22.4950  -10.7630 C.3     1  MOL1        0.2720
     29 F18         9.7260  -23.2520  -11.7680 F       1  MOL1       -0.2040
     30 F19        10.0330  -21.6390  -10.1270 F       1  MOL1       -0.2040
     31 C20         7.8550  -21.8220  -11.1810 C.3     1  MOL1        0.0640
     32 O25         1.9750  -20.3580   -7.6130 O.3     1  MOL1       -0.4930
     33 C26         0.5940  -20.0600   -7.7930 C.3     1  MOL1        0.0780
@<TRIPOS>BOND
     1     4     3   ar
     2     4     5   ar
     3     3     2   ar
     4     6     5    1
     5    29    28    1
     6     5     7   ar
     7     2     1   ar
     8    31    28    1
     9    31    26    1
    10    28    30    1
    11    28    27    1
    12     7     1   ar
    13    22    21   ar
    14    22    23   ar
    15    26    27    1
    16    26    25    1
    17     1     8    1
    18    21    20   ar
    19    23    24   ar
    20    16    15    2
    21    20    25    1
    22    20    19   ar
    23    13    12    2
    24     9     8    1
    25     9    12    1
    26     8    14    1
    27    24    19   ar
    28    24    32    1
    29    12    11   am
    30    19    18    1
    31    15    14   am
    32    15    17    1
    33    33    32    1
    34    17    18    1
    35    11    10    1
