@<TRIPOS>MOLECULE
L3024_0_out.pdbqt
 33 35 0 0 0
SMALL
GASTEIGER

@<TRIPOS>ATOM
      1 C27         8.5540  -17.7830   -9.3680 C.ar    1  MOL1       -0.0240
      2 C28         8.2460  -17.3590  -10.6740 C.ar    1  MOL1       -0.0570
      3 C29         7.0770  -16.6330  -10.9250 C.ar    1  MOL1       -0.0610
      4 C30         6.2050  -16.3230   -9.8770 C.ar    1  MOL1       -0.0480
      5 C31         6.5010  -16.7360   -8.5730 C.ar    1  MOL1        0.0180
      6 Br32        5.3180  -16.2930   -7.1370 Br      1  MOL1       -0.0510
      7 C33         7.6660  -17.4670   -8.3200 C.ar    1  MOL1       -0.0430
      8  C6         9.7830  -18.6300   -9.1170 C.3     1  MOL1        0.0630
      9  C5         9.3950  -19.9070   -8.3500 C.3     1  MOL1        0.0510
     10  C1         8.8830  -22.4590  -11.2490 C.3     1  MOL1        0.0060
     11  N2         8.7540  -21.2890  -10.3920 N.am    1  MOL1       -0.3590
     12  C3         9.5440  -21.1310   -9.2080 C.2     1  MOL1        0.2220
     13  O4        10.3750  -22.0200   -8.8790 O.2     1  MOL1       -0.2750
     14  N7        10.7850  -17.8630   -8.3690 N.am    1  MOL1       -0.3460
     15  C8        12.1760  -17.8930   -8.6930 C.2     1  MOL1        0.2580
     16  O9        12.5910  -18.6050   -9.6470 O.2     1  MOL1       -0.2710
     17 C10        13.1550  -17.0690   -7.9120 C.3     1  MOL1        0.1670
     18 O11        13.5950  -17.7790   -6.7570 O.3     1  MOL1       -0.4800
     19 C12        14.9500  -17.9970   -6.4920 C.ar    1  MOL1        0.1660
     20 C13        15.7430  -17.0040   -5.8730 C.ar    1  MOL1        0.0120
     21 C21        17.0800  -17.2950   -5.5540 C.ar    1  MOL1       -0.0540
     22 C22        17.6340  -18.5310   -5.8860 C.ar    1  MOL1       -0.0580
     23 C23        16.8630  -19.4920   -6.5420 C.ar    1  MOL1       -0.0160
     24 C24        15.5160  -19.2300   -6.8540 C.ar    1  MOL1        0.1610
     25 C14        15.1920  -15.6340   -5.5460 C.3     1  MOL1        0.0280
     26 N15        14.7990  -15.5620   -4.1240 N.3     1  MOL1       -0.2870
     27 C16        13.4870  -14.9140   -3.9570 C.3     1  MOL1        0.0640
     28 C17        14.0840  -13.7250   -3.2310 C.3     1  MOL1        0.2720
     29 F18        13.7050  -13.6370   -1.9030 F       1  MOL1       -0.2040
     30 F19        13.9720  -12.5320   -3.9260 F       1  MOL1       -0.2040
     31 C20        15.4180  -14.4170   -3.4340 C.3     1  MOL1        0.0640
     32 O25        14.7080  -20.1680   -7.5130 O.3     1  MOL1       -0.4930
     33 C26        15.1060  -20.9080   -8.6620 C.3     1  MOL1        0.0780
@<TRIPOS>BOND
     1    10    11    1
     2     3     2   ar
     3     3     4   ar
     4     2     1   ar
     5    11    12   am
     6     4     5   ar
     7    16    15    2
     8     1     8    1
     9     1     7   ar
    10    12    13    2
    11    12     9    1
    12     8    14    1
    13     8     9    1
    14    15    14   am
    15    15    17    1
    16    33    32    1
    17     5     7   ar
    18     5     6    1
    19    17    18    1
    20    32    24    1
    21    24    23   ar
    22    24    19   ar
    23    18    19    1
    24    23    22   ar
    25    19    20   ar
    26    22    21   ar
    27    20    21   ar
    28    20    25    1
    29    25    26    1
    30    26    27    1
    31    26    31    1
    32    27    28    1
    33    30    28    1
    34    31    28    1
    35    28    29    1
