@<TRIPOS>MOLECULE
L3024_0_out.pdbqt
 33 35 0 0 0
SMALL
GASTEIGER

@<TRIPOS>ATOM
      1 C27        16.5320  -17.8070   -7.8380 C.ar    1  MOL1       -0.0240
      2 C28        16.1690  -16.7140   -8.6450 C.ar    1  MOL1       -0.0570
      3 C29        16.5000  -15.4100   -8.2610 C.ar    1  MOL1       -0.0610
      4 C30        17.1930  -15.1850   -7.0690 C.ar    1  MOL1       -0.0480
      5 C31        17.5630  -16.2630   -6.2580 C.ar    1  MOL1        0.0180
      6 Br32       18.5310  -15.9560   -4.6370 Br      1  MOL1       -0.0510
      7 C33        17.2300  -17.5680   -6.6360 C.ar    1  MOL1       -0.0430
      8  C6        16.1080  -19.2070   -8.2240 C.3     1  MOL1        0.0630
      9  C5        16.9610  -19.7110   -9.4020 C.3     1  MOL1        0.0510
     10  C1        19.2300  -22.2140   -7.4620 C.3     1  MOL1        0.0060
     11  N2        18.4970  -21.0150   -7.8430 N.am    1  MOL1       -0.3590
     12  C3        17.7150  -20.9590   -9.0410 C.2     1  MOL1        0.2220
     13  O4        17.6520  -21.9620   -9.8030 O.2     1  MOL1       -0.2750
     14  N7        14.6830  -19.2290   -8.5730 N.am    1  MOL1       -0.3460
     15  C8        13.7490  -20.1060   -7.9390 C.2     1  MOL1        0.2580
     16  O9        14.1360  -20.9100   -7.0500 O.2     1  MOL1       -0.2710
     17 C10        12.2980  -20.0680   -8.3160 C.3     1  MOL1        0.1670
     18 O11        12.0140  -18.9060   -9.0900 O.3     1  MOL1       -0.4800
     19 C12        10.8790  -18.1220   -8.8610 C.ar    1  MOL1        0.1660
     20 C13        10.8630  -17.1360   -7.8490 C.ar    1  MOL1        0.0120
     21 C21         9.7300  -16.3180   -7.7070 C.ar    1  MOL1       -0.0540
     22 C22         8.6130  -16.5070   -8.5210 C.ar    1  MOL1       -0.0580
     23 C23         8.6120  -17.5150   -9.4860 C.ar    1  MOL1       -0.0160
     24 C24         9.7430  -18.3330   -9.6600 C.ar    1  MOL1        0.1610
     25 C14        12.0340  -16.9370   -6.9120 C.3     1  MOL1        0.0280
     26 N15        12.1170  -15.5260   -6.4830 N.3     1  MOL1       -0.2870
     27 C16        13.4530  -14.9600   -6.7350 C.3     1  MOL1        0.0640
     28 C17        13.7460  -14.8010   -5.2560 C.3     1  MOL1        0.2720
     29 F18        13.8460  -13.4830   -4.8480 F       1  MOL1       -0.2040
     30 F19        14.7750  -15.6090   -4.8020 F       1  MOL1       -0.2040
     31 C20        12.3700  -15.3990   -5.0370 C.3     1  MOL1        0.0640
     32 O25         9.7820  -19.3570  -10.6180 O.3     1  MOL1       -0.4930
     33 C26         9.0710  -20.5860  -10.5120 C.3     1  MOL1        0.0780
@<TRIPOS>BOND
     1    32    33    1
     2    32    24    1
     3    13    12    2
     4    24    23   ar
     5    24    19   ar
     6    23    22   ar
     7     9    12    1
     8     9     8    1
     9    18    19    1
    10    18    17    1
    11    12    11   am
    12    19    20   ar
    13     2     3   ar
    14     2     1   ar
    15    14     8    1
    16    14    15   am
    17    22    21   ar
    18    17    15    1
    19     3     4   ar
    20     8     1    1
    21    15    16    2
    22    20    21   ar
    23    20    25    1
    24    11    10    1
    25     1     7   ar
    26     4     5   ar
    27    25    26    1
    28    27    26    1
    29    27    28    1
    30     7     5   ar
    31    26    31    1
    32     5     6    1
    33    28    31    1
    34    28    29    1
    35    28    30    1
