@<TRIPOS>MOLECULE
L3024_0_out.pdbqt
 33 35 0 0 0
SMALL
GASTEIGER

@<TRIPOS>ATOM
      1 C27        17.4690  -20.2050   -6.6800 C.ar    1  MOL1       -0.0240
      2 C28        18.5350  -19.2860   -6.6960 C.ar    1  MOL1       -0.0570
      3 C29        19.8000  -19.6790   -7.1460 C.ar    1  MOL1       -0.0610
      4 C30        20.0150  -20.9890   -7.5820 C.ar    1  MOL1       -0.0480
      5 C31        18.9630  -21.9110   -7.5750 C.ar    1  MOL1        0.0180
      6 Br32       19.2520  -23.6990   -8.1930 Br      1  MOL1       -0.0510
      7 C33        17.6980  -21.5250   -7.1210 C.ar    1  MOL1       -0.0430
      8  C6        16.1230  -19.7940   -6.1240 C.3     1  MOL1        0.0630
      9  C5        15.3540  -18.9620   -7.1670 C.3     1  MOL1        0.0510
     10  C1        12.3220  -21.4070   -7.1390 C.3     1  MOL1        0.0060
     11  N2        13.6010  -20.7800   -6.8390 N.am    1  MOL1       -0.3590
     12  C3        14.0340  -19.5910   -7.5070 C.2     1  MOL1        0.2220
     13  O4        13.3040  -19.0590   -8.3880 O.2     1  MOL1       -0.2750
     14  N7        16.2970  -19.0320   -4.8830 N.am    1  MOL1       -0.3460
     15  C8        15.5940  -19.3510   -3.6800 C.2     1  MOL1        0.2580
     16  O9        14.7790  -20.3110   -3.6560 O.2     1  MOL1       -0.2710
     17 C10        15.8290  -18.5550   -2.4310 C.3     1  MOL1        0.1670
     18 O11        14.6500  -17.8420   -2.0640 O.3     1  MOL1       -0.4800
     19 C12        14.6690  -16.4730   -1.7870 C.ar    1  MOL1        0.1660
     20 C13        14.4970  -15.5160   -2.8130 C.ar    1  MOL1        0.0120
     21 C21        14.4430  -14.1530   -2.4780 C.ar    1  MOL1       -0.0540
     22 C22        14.6050  -13.7430   -1.1550 C.ar    1  MOL1       -0.0580
     23 C23        14.8240  -14.6850   -0.1500 C.ar    1  MOL1       -0.0160
     24 C24        14.8620  -16.0580   -0.4590 C.ar    1  MOL1        0.1610
     25 C14        14.3720  -15.9200   -4.2660 C.3     1  MOL1        0.0280
     26 N15        14.6770  -14.7750   -5.1480 N.3     1  MOL1       -0.2870
     27 C16        13.5450  -14.4580   -6.0350 C.3     1  MOL1        0.0640
     28 C17        14.3170  -14.8500   -7.2800 C.3     1  MOL1        0.2720
     29 F18        14.5890  -13.7870   -8.1230 F       1  MOL1       -0.2040
     30 F19        13.8030  -15.9620   -7.9270 F       1  MOL1       -0.2040
     31 C20        15.4540  -15.1780   -6.3330 C.3     1  MOL1        0.0640
     32 O25        15.0810  -17.0370    0.5210 O.3     1  MOL1       -0.4930
     33 C26        16.2080  -17.0690    1.3890 C.3     1  MOL1        0.0780
@<TRIPOS>BOND
     1    13    12    2
     2     6     5    1
     3    29    28    1
     4    30    28    1
     5     4     5   ar
     6     4     3   ar
     7     5     7   ar
     8    12     9    1
     9    12    11   am
    10    28    31    1
    11    28    27    1
    12     9     8    1
    13     3     2   ar
    14    10    11    1
    15     7     1   ar
    16     2     1   ar
    17     1     8    1
    18    31    26    1
    19     8    14    1
    20    27    26    1
    21    26    25    1
    22    14    15   am
    23    25    20    1
    24    15    16    2
    25    15    17    1
    26    20    21   ar
    27    20    19   ar
    28    21    22   ar
    29    17    18    1
    30    18    19    1
    31    19    24   ar
    32    22    23   ar
    33    24    23   ar
    34    24    32    1
    35    32    33    1
