@<TRIPOS>MOLECULE
L3024_0_out.pdbqt
 33 35 0 0 0
SMALL
GASTEIGER

@<TRIPOS>ATOM
      1 C27         8.3450  -17.9030   -9.1560 C.ar    1  MOL1       -0.0240
      2 C28         8.1930  -17.4320  -10.4730 C.ar    1  MOL1       -0.0570
      3 C29         7.0980  -16.6310  -10.8160 C.ar    1  MOL1       -0.0610
      4 C30         6.1460  -16.2940   -9.8500 C.ar    1  MOL1       -0.0480
      5 C31         6.2870  -16.7540   -8.5350 C.ar    1  MOL1        0.0180
      6 Br32        4.9950  -16.2740   -7.2090 Br      1  MOL1       -0.0510
      7 C33         7.3780  -17.5590   -8.1900 C.ar    1  MOL1       -0.0430
      8  C6         9.4930  -18.8280   -8.8100 C.3     1  MOL1        0.0630
      9  C5         8.9510  -20.1460   -8.2280 C.3     1  MOL1        0.0510
     10  C1         6.5700  -22.3040  -10.4300 C.3     1  MOL1        0.0060
     11  N2         7.0770  -21.4230   -9.3870 N.am    1  MOL1       -0.3590
     12  C3         8.4610  -21.0650   -9.3090 C.2     1  MOL1        0.2220
     13  O4         9.2800  -21.5200  -10.1530 O.2     1  MOL1       -0.2750
     14  N7        10.4010  -18.1780   -7.8590 N.am    1  MOL1       -0.3460
     15  C8        11.6240  -17.5600   -8.2640 C.2     1  MOL1        0.2580
     16  O9        11.9690  -17.5670   -9.4750 O.2     1  MOL1       -0.2710
     17 C10        12.5040  -16.8860   -7.2530 C.3     1  MOL1        0.1670
     18 O11        13.5880  -17.7370   -6.8890 O.3     1  MOL1       -0.4800
     19 C12        14.6470  -18.0030   -7.7600 C.ar    1  MOL1        0.1660
     20 C13        14.7640  -19.2530   -8.4100 C.ar    1  MOL1        0.0120
     21 C21        15.8000  -19.4480   -9.3380 C.ar    1  MOL1       -0.0540
     22 C22        16.7330  -18.4400   -9.5810 C.ar    1  MOL1       -0.0580
     23 C23        16.6460  -17.2260   -8.9010 C.ar    1  MOL1       -0.0160
     24 C24        15.6050  -16.9990   -7.9820 C.ar    1  MOL1        0.1610
     25 C14        13.8030  -20.3870   -8.1330 C.3     1  MOL1        0.0280
     26 N15        14.3880  -21.3320   -7.1600 N.3     1  MOL1       -0.2870
     27 C16        14.6550  -22.6450   -7.7720 C.3     1  MOL1        0.0640
     28 C17        13.6160  -23.3390   -6.9140 C.3     1  MOL1        0.2720
     29 F18        14.1530  -24.2420   -6.0130 F       1  MOL1       -0.2040
     30 F19        12.5410  -23.8350   -7.6320 F       1  MOL1       -0.2040
     31 C20        13.3610  -21.9690   -6.3170 C.3     1  MOL1        0.0640
     32 O25        15.4820  -15.7930   -7.2770 O.3     1  MOL1       -0.4930
     33 C26        15.2210  -14.5300   -7.8800 C.3     1  MOL1        0.0780
@<TRIPOS>BOND
     1     3     2   ar
     2     3     4   ar
     3     2     1   ar
     4    10    11    1
     5    13    12    2
     6     4     5   ar
     7    22    21   ar
     8    22    23   ar
     9    16    15    2
    10    11    12   am
    11    21    20   ar
    12    12     9    1
    13     1     8    1
    14     1     7   ar
    15    23    24   ar
    16     8     9    1
    17     8    14    1
    18     5     7   ar
    19     5     6    1
    20    20    25    1
    21    20    19   ar
    22    15    14   am
    23    15    17    1
    24    25    26    1
    25    24    19   ar
    26    24    32    1
    27    33    32    1
    28    27    26    1
    29    27    28    1
    30    19    18    1
    31    30    28    1
    32    17    18    1
    33    26    31    1
    34    28    31    1
    35    28    29    1
