@<TRIPOS>MOLECULE
L3024_0_out.pdbqt
 33 35 0 0 0
SMALL
GASTEIGER

@<TRIPOS>ATOM
      1 C27        13.5060  -19.1530   -7.0520 C.ar    1  MOL1       -0.0240
      2 C28        14.8650  -19.0490   -6.7010 C.ar    1  MOL1       -0.0570
      3 C29        15.5740  -20.1790   -6.2780 C.ar    1  MOL1       -0.0610
      4 C30        14.9370  -21.4200   -6.2020 C.ar    1  MOL1       -0.0480
      5 C31        13.5870  -21.5370   -6.5520 C.ar    1  MOL1        0.0180
      6 Br32       12.7200  -23.2410   -6.4680 Br      1  MOL1       -0.0510
      7 C33        12.8730  -20.4090   -6.9690 C.ar    1  MOL1       -0.0430
      8  C6        12.7270  -17.9140   -7.4380 C.3     1  MOL1        0.0630
      9  C5        12.2460  -18.0260   -8.8960 C.3     1  MOL1        0.0510
     10  C1         8.5790  -18.3840  -10.1590 C.3     1  MOL1        0.0060
     11  N2        10.0240  -18.5170  -10.0390 N.am    1  MOL1       -0.3590
     12  C3        10.7580  -17.8610   -8.9990 C.2     1  MOL1        0.2220
     13  O4        10.1550  -17.1400   -8.1580 O.2     1  MOL1       -0.2750
     14  N7        13.5550  -16.7170   -7.2580 N.am    1  MOL1       -0.3460
     15  C8        13.1500  -15.6170   -6.4390 C.2     1  MOL1        0.2580
     16  O9        12.0400  -15.6440   -5.8440 O.2     1  MOL1       -0.2710
     17 C10        14.0470  -14.4280   -6.2690 C.3     1  MOL1        0.1670
     18 O11        14.7820  -14.5280   -5.0520 O.3     1  MOL1       -0.4800
     19 C12        15.7240  -15.5370   -4.8350 C.ar    1  MOL1        0.1660
     20 C13        15.6540  -16.3710   -3.6950 C.ar    1  MOL1        0.0120
     21 C21        16.5750  -17.4230   -3.5580 C.ar    1  MOL1       -0.0540
     22 C22        17.5770  -17.6160   -4.5100 C.ar    1  MOL1       -0.0580
     23 C23        17.6750  -16.7610   -5.6080 C.ar    1  MOL1       -0.0160
     24 C24        16.7520  -15.7120   -5.7770 C.ar    1  MOL1        0.1610
     25 C14        14.6150  -16.1590   -2.6170 C.3     1  MOL1        0.0280
     26 N15        15.2670  -15.9200   -1.3130 N.3     1  MOL1       -0.2870
     27 C16        14.2860  -15.5630   -0.2740 C.3     1  MOL1        0.0640
     28 C17        14.8390  -14.1590   -0.1310 C.3     1  MOL1        0.2720
     29 F18        15.4340  -13.9180    1.0960 F       1  MOL1       -0.2040
     30 F19        13.9570  -13.1680   -0.5310 F       1  MOL1       -0.2040
     31 C20        15.8240  -14.5600   -1.2110 C.3     1  MOL1        0.0640
     32 O25        16.8160  -14.8310   -6.8660 O.3     1  MOL1       -0.4930
     33 C26        16.7890  -15.2340   -8.2310 C.3     1  MOL1        0.0780
@<TRIPOS>BOND
     1    10    11    1
     2    11    12   am
     3    12     9    1
     4    12    13    2
     5     9     8    1
     6    33    32    1
     7     8    14    1
     8     8     1    1
     9    14    15   am
    10     1     7   ar
    11     1     2   ar
    12     7     5   ar
    13    32    24    1
    14     2     3   ar
    15     5     6    1
    16     5     4   ar
    17    15    17    1
    18    15    16    2
    19     3     4   ar
    20    17    18    1
    21    24    23   ar
    22    24    19   ar
    23    23    22   ar
    24    18    19    1
    25    19    20   ar
    26    22    21   ar
    27    20    21   ar
    28    20    25    1
    29    25    26    1
    30    26    31    1
    31    26    27    1
    32    31    28    1
    33    30    28    1
    34    27    28    1
    35    28    29    1
