@<TRIPOS>MOLECULE
L3024_0_out.pdbqt
 33 35 0 0 0
SMALL
GASTEIGER

@<TRIPOS>ATOM
      1 C27        16.1140  -17.1720   -7.3320 C.ar    1  MOL1       -0.0240
      2 C28        16.3200  -16.6100   -8.6050 C.ar    1  MOL1       -0.0570
      3 C29        17.3560  -17.0740   -9.4240 C.ar    1  MOL1       -0.0610
      4 C30        18.1940  -18.1000   -8.9810 C.ar    1  MOL1       -0.0480
      5 C31        17.9980  -18.6700   -7.7180 C.ar    1  MOL1        0.0180
      6 Br32       19.1330  -20.0900   -7.1210 Br      1  MOL1       -0.0510
      7 C33        16.9680  -18.2050   -6.8940 C.ar    1  MOL1       -0.0430
      8  C6        15.0390  -16.6160   -6.4230 C.3     1  MOL1        0.0630
      9  C5        15.2880  -17.0680   -4.9730 C.3     1  MOL1        0.0510
     10  C1        17.3860  -15.1580   -2.3040 C.3     1  MOL1        0.0060
     11  N2        16.8200  -16.2190   -3.1240 N.am    1  MOL1       -0.3590
     12  C3        15.8440  -15.9520   -4.1360 C.2     1  MOL1        0.2220
     13  O4        15.4450  -14.7720   -4.3350 O.2     1  MOL1       -0.2750
     14  N7        13.7140  -17.0500   -6.8790 N.am    1  MOL1       -0.3460
     15  C8        12.5370  -16.2630   -6.6830 C.2     1  MOL1        0.2580
     16  O9        12.6060  -15.1540   -6.0900 O.2     1  MOL1       -0.2710
     17 C10        11.2110  -16.7420   -7.1930 C.3     1  MOL1        0.1670
     18 O11        11.3860  -17.5600   -8.3470 O.3     1  MOL1       -0.4800
     19 C12        10.9030  -18.8700   -8.4080 C.ar    1  MOL1        0.1660
     20 C13         9.5350  -19.1350   -8.6480 C.ar    1  MOL1        0.0120
     21 C21         9.1080  -20.4660   -8.7800 C.ar    1  MOL1       -0.0540
     22 C22        10.0110  -21.5180   -8.6280 C.ar    1  MOL1       -0.0580
     23 C23        11.3510  -21.2560   -8.3410 C.ar    1  MOL1       -0.0160
     24 C24        11.8060  -19.9300   -8.2250 C.ar    1  MOL1        0.1610
     25 C14         8.5170  -18.0220   -8.7650 C.3     1  MOL1        0.0280
     26 N15         8.5990  -17.3860  -10.0960 N.3     1  MOL1       -0.2870
     27 C16         7.2660  -17.2180  -10.6990 C.3     1  MOL1        0.0640
     28 C17         7.5670  -18.2000  -11.8140 C.3     1  MOL1        0.2720
     29 F18         7.6250  -17.6170  -13.0680 F       1  MOL1       -0.2040
     30 F19         6.7970  -19.3510  -11.7660 F       1  MOL1       -0.2040
     31 C20         8.9240  -18.3560  -11.1560 C.3     1  MOL1        0.0640
     32 O25        13.1440  -19.6240   -7.9370 O.3     1  MOL1       -0.4930
     33 C26        14.2340  -20.5220   -8.1220 C.3     1  MOL1        0.0780
@<TRIPOS>BOND
     1    29    28    1
     2    28    30    1
     3    28    31    1
     4    28    27    1
     5    31    26    1
     6    27    26    1
     7    26    25    1
     8     3     4   ar
     9     3     2   ar
    10     4     5   ar
    11    21    20   ar
    12    21    22   ar
    13    25    20    1
    14    20    19   ar
    15    22    23   ar
    16     2     1   ar
    17    19    18    1
    18    19    24   ar
    19    18    17    1
    20    23    24   ar
    21    24    32    1
    22    33    32    1
    23     5     6    1
    24     5     7   ar
    25     1     7   ar
    26     1     8    1
    27    17    15    1
    28    14    15   am
    29    14     8    1
    30    15    16    2
    31     8     9    1
    32     9    12    1
    33    13    12    2
    34    12    11   am
    35    11    10    1
