@<TRIPOS>MOLECULE
L3024_0_out.pdbqt
 33 35 0 0 0
SMALL
GASTEIGER

@<TRIPOS>ATOM
      1 C27         8.4720  -18.2060  -10.3700 C.ar    1  MOL1       -0.0240
      2 C28         7.9840  -17.6990  -11.5880 C.ar    1  MOL1       -0.0570
      3 C29         6.9230  -16.7870  -11.6010 C.ar    1  MOL1       -0.0610
      4 C30         6.3380  -16.3740  -10.4010 C.ar    1  MOL1       -0.0480
      5 C31         6.8160  -16.8680   -9.1820 C.ar    1  MOL1        0.0180
      6 Br32        6.0300  -16.2850   -7.5380 Br      1  MOL1       -0.0510
      7 C33         7.8730  -17.7840   -9.1650 C.ar    1  MOL1       -0.0430
      8  C6         9.5710  -19.2460  -10.3680 C.3     1  MOL1        0.0630
      9  C5         8.9730  -20.6450  -10.6000 C.3     1  MOL1        0.0510
     10  C1         6.2600  -21.1490   -7.8510 C.3     1  MOL1        0.0060
     11  N2         7.5430  -21.0160   -8.5250 N.am    1  MOL1       -0.3590
     12  C3         7.6340  -20.7890   -9.9360 C.2     1  MOL1        0.2220
     13  O4         6.5860  -20.7050  -10.6320 O.2     1  MOL1       -0.2750
     14  N7        10.3100  -19.2030   -9.1020 N.am    1  MOL1       -0.3460
     15  C8        11.5330  -18.4810   -8.9490 C.2     1  MOL1        0.2580
     16  O9        12.0270  -17.8550   -9.9240 O.2     1  MOL1       -0.2710
     17 C10        12.2340  -18.4480   -7.6240 C.3     1  MOL1        0.1670
     18 O11        13.6280  -18.2100   -7.8030 O.3     1  MOL1       -0.4800
     19 C12        14.5120  -18.1340   -6.7230 C.ar    1  MOL1        0.1660
     20 C13        15.2850  -19.2520   -6.3310 C.ar    1  MOL1        0.0120
     21 C21        16.2180  -19.1080   -5.2910 C.ar    1  MOL1       -0.0540
     22 C22        16.3480  -17.8930   -4.6190 C.ar    1  MOL1       -0.0580
     23 C23        15.5490  -16.8060   -4.9740 C.ar    1  MOL1       -0.0160
     24 C24        14.6220  -16.9200   -6.0260 C.ar    1  MOL1        0.1610
     25 C14        15.1330  -20.5990   -7.0010 C.3     1  MOL1        0.0280
     26 N15        14.6190  -21.5970   -6.0410 N.3     1  MOL1       -0.2870
     27 C16        14.4750  -22.9240   -6.6630 C.3     1  MOL1        0.0640
     28 C17        12.9650  -22.9040   -6.5300 C.3     1  MOL1        0.2720
     29 F18        12.4720  -23.8500   -5.6470 F       1  MOL1       -0.2040
     30 F19        12.2980  -22.8670   -7.7430 F       1  MOL1       -0.2040
     31 C20        13.1540  -21.5350   -5.9050 C.3     1  MOL1        0.0640
     32 O25        13.7990  -15.8520   -6.4130 O.3     1  MOL1       -0.4930
     33 C26        13.3510  -14.8220   -5.5380 C.3     1  MOL1        0.0780
@<TRIPOS>BOND
     1     3     2   ar
     2     3     4   ar
     3     2     1   ar
     4    13    12    2
     5     9     8    1
     6     9    12    1
     7     4     5   ar
     8     1     8    1
     9     1     7   ar
    10     8    14    1
    11    12    11   am
    12    16    15    2
    13     5     7   ar
    14     5     6    1
    15    14    15   am
    16    15    17    1
    17    11    10    1
    18    18    17    1
    19    18    19    1
    20    30    28    1
    21    25    20    1
    22    25    26    1
    23    19    20   ar
    24    19    24   ar
    25    27    28    1
    26    27    26    1
    27    28    31    1
    28    28    29    1
    29    32    24    1
    30    32    33    1
    31    20    21   ar
    32    26    31    1
    33    24    23   ar
    34    21    22   ar
    35    23    22   ar
