@<TRIPOS>MOLECULE
L3024_0_out.pdbqt
 33 35 0 0 0
SMALL
GASTEIGER

@<TRIPOS>ATOM
      1 C27        15.6500  -18.3900   -0.4210 C.ar    1  MOL1       -0.0240
      2 C28        16.1080  -17.9300    0.8270 C.ar    1  MOL1       -0.0570
      3 C29        15.8300  -18.6520    1.9930 C.ar    1  MOL1       -0.0610
      4 C30        15.0930  -19.8370    1.9250 C.ar    1  MOL1       -0.0480
      5 C31        14.6340  -20.3070    0.6890 C.ar    1  MOL1        0.0180
      6 Br32       13.6430  -21.9420    0.5940 Br      1  MOL1       -0.0510
      7 C33        14.9050  -19.5860   -0.4780 C.ar    1  MOL1       -0.0430
      8  C6        15.8920  -17.5660   -1.6670 C.3     1  MOL1        0.0630
      9  C5        14.6210  -16.7800   -2.0350 C.3     1  MOL1        0.0510
     10  C1        14.9790  -13.3030   -0.3150 C.3     1  MOL1        0.0060
     11  N2        14.7860  -14.7290   -0.5330 N.am    1  MOL1       -0.3590
     12  C3        14.8120  -15.3030   -1.8440 C.2     1  MOL1        0.2220
     13  O4        15.0000  -14.5680   -2.8520 O.2     1  MOL1       -0.2750
     14  N7        16.3030  -18.4320   -2.7770 N.am    1  MOL1       -0.3460
     15  C8        17.2090  -18.0010   -3.7950 C.2     1  MOL1        0.2580
     16  O9        17.6820  -16.8340   -3.7710 O.2     1  MOL1       -0.2710
     17 C10        17.6160  -18.9360   -4.8930 C.3     1  MOL1        0.1670
     18 O11        18.5070  -18.2870   -5.7970 O.3     1  MOL1       -0.4800
     19 C12        18.3200  -18.3280   -7.1810 C.ar    1  MOL1        0.1660
     20 C13        17.4860  -17.3930   -7.8350 C.ar    1  MOL1        0.0120
     21 C21        17.3890  -17.4220   -9.2360 C.ar    1  MOL1       -0.0540
     22 C22        18.0690  -18.3920   -9.9720 C.ar    1  MOL1       -0.0580
     23 C23        18.8520  -19.3460   -9.3210 C.ar    1  MOL1       -0.0160
     24 C24        18.9800  -19.3240   -7.9200 C.ar    1  MOL1        0.1610
     25 C14        16.6910  -16.3610   -7.0660 C.3     1  MOL1        0.0280
     26 N15        15.2600  -16.7260   -7.0390 N.3     1  MOL1       -0.2870
     27 C16        14.4470  -15.7890   -7.8330 C.3     1  MOL1        0.0640
     28 C17        13.7190  -15.2690   -6.6090 C.3     1  MOL1        0.2720
     29 F18        12.3730  -15.5880   -6.5850 F       1  MOL1       -0.2040
     30 F19        13.9860  -13.9390   -6.3250 F       1  MOL1       -0.2040
     31 C20        14.5840  -16.2370   -5.8250 C.3     1  MOL1        0.0640
     32 O25        19.7570  -20.2640   -7.2280 O.3     1  MOL1       -0.4930
     33 C26        19.8280  -21.6480   -7.5550 C.3     1  MOL1        0.0780
@<TRIPOS>BOND
     1    22    23   ar
     2    22    21   ar
     3    23    24   ar
     4    21    20   ar
     5    24    32    1
     6    24    19   ar
     7    20    19   ar
     8    20    25    1
     9    27    26    1
    10    27    28    1
    11    33    32    1
    12    19    18    1
    13    25    26    1
    14    26    31    1
    15    28    29    1
    16    28    30    1
    17    28    31    1
    18    18    17    1
    19    17    15    1
    20    15    16    2
    21    15    14   am
    22    13    12    2
    23    14     8    1
    24     9    12    1
    25     9     8    1
    26    12    11   am
    27     8     1    1
    28    11    10    1
    29     7     1   ar
    30     7     5   ar
    31     1     2   ar
    32     6     5    1
    33     5     4   ar
    34     2     3   ar
    35     4     3   ar
