@<TRIPOS>MOLECULE
L3024_0_out.pdbqt
 33 35 0 0 0
SMALL
GASTEIGER

@<TRIPOS>ATOM
      1 C27         7.0710  -19.7400   -9.7350 C.ar    1  MOL1       -0.0240
      2 C28         7.1620  -20.6680  -10.7890 C.ar    1  MOL1       -0.0570
      3 C29         6.2740  -21.7460  -10.8600 C.ar    1  MOL1       -0.0610
      4 C30         5.2890  -21.9100   -9.8820 C.ar    1  MOL1       -0.0480
      5 C31         5.1850  -20.9920   -8.8310 C.ar    1  MOL1        0.0180
      6 Br32        3.8230  -21.2040   -7.5050 Br      1  MOL1       -0.0510
      7 C33         6.0750  -19.9160   -8.7530 C.ar    1  MOL1       -0.0430
      8  C6         8.0810  -18.6180   -9.6250 C.3     1  MOL1        0.0630
      9  C5         8.4230  -18.0770  -11.0250 C.3     1  MOL1        0.0510
     10  C1         5.8610  -15.1460  -11.1610 C.3     1  MOL1        0.0060
     11  N2         6.8810  -16.0770  -10.6990 N.am    1  MOL1       -0.3590
     12  C3         7.3630  -17.1400  -11.5280 C.2     1  MOL1        0.2220
     13  O4         6.9010  -17.2940  -12.6910 O.2     1  MOL1       -0.2750
     14  N7         9.2910  -19.0890   -8.9440 N.am    1  MOL1       -0.3460
     15  C8        10.1590  -18.2110   -8.2230 C.2     1  MOL1        0.2580
     16  O9         9.9070  -16.9780   -8.1610 O.2     1  MOL1       -0.2710
     17 C10        11.3700  -18.7490   -7.5220 C.3     1  MOL1        0.1670
     18 O11        12.4200  -18.9920   -8.4550 O.3     1  MOL1       -0.4800
     19 C12        13.7030  -19.3670   -8.0470 C.ar    1  MOL1        0.1660
     20 C13        14.7410  -18.4150   -7.9320 C.ar    1  MOL1        0.0120
     21 C21        15.9930  -18.8220   -7.4420 C.ar    1  MOL1       -0.0540
     22 C22        16.2260  -20.1590   -7.1190 C.ar    1  MOL1       -0.0580
     23 C23        15.2150  -21.1060   -7.2810 C.ar    1  MOL1       -0.0160
     24 C24        13.9470  -20.7180   -7.7510 C.ar    1  MOL1        0.1610
     25 C14        14.5420  -16.9670   -8.3230 C.3     1  MOL1        0.0280
     26 N15        14.8680  -16.0770   -7.1900 N.3     1  MOL1       -0.2870
     27 C16        14.0220  -16.3600   -6.0180 C.3     1  MOL1        0.0640
     28 C17        13.3330  -15.0120   -6.0990 C.3     1  MOL1        0.2720
     29 F18        13.6160  -14.1790   -5.0310 F       1  MOL1       -0.2040
     30 F19        11.9840  -15.0930   -6.4050 F       1  MOL1       -0.2040
     31 C20        14.2120  -14.7640   -7.3090 C.3     1  MOL1        0.0640
     32 O25        12.9040  -21.6390   -7.9290 O.3     1  MOL1       -0.4930
     33 C26        12.6600  -22.7540   -7.0780 C.3     1  MOL1        0.0780
@<TRIPOS>BOND
     1    13    12    2
     2    12     9    1
     3    12    11   am
     4    10    11    1
     5     9     8    1
     6     3     2   ar
     7     3     4   ar
     8     2     1   ar
     9     4     5   ar
    10     1     8    1
    11     1     7   ar
    12     8    14    1
    13    14    15   am
    14     5     7   ar
    15     5     6    1
    16    18    19    1
    17    18    17    1
    18    25    20    1
    19    25    26    1
    20    15    16    2
    21    15    17    1
    22    19    20   ar
    23    19    24   ar
    24    20    21   ar
    25    32    24    1
    26    32    33    1
    27    24    23   ar
    28    21    22   ar
    29    31    26    1
    30    31    28    1
    31    23    22   ar
    32    26    27    1
    33    30    28    1
    34    28    27    1
    35    28    29    1
