@<TRIPOS>MOLECULE
L3024_0_out.pdbqt
 33 35 0 0 0
SMALL
GASTEIGER

@<TRIPOS>ATOM
      1 C27         8.4750  -17.7090   -8.6880 C.ar    1  MOL1       -0.0240
      2 C28         8.8910  -16.4330   -8.2650 C.ar    1  MOL1       -0.0570
      3 C29        10.0660  -16.2820   -7.5220 C.ar    1  MOL1       -0.0610
      4 C30        10.8370  -17.4000   -7.1940 C.ar    1  MOL1       -0.0480
      5 C31        10.4370  -18.6750   -7.6100 C.ar    1  MOL1        0.0180
      6 Br32       11.5050  -20.2020   -7.1790 Br      1  MOL1       -0.0510
      7 C33         9.2600  -18.8300   -8.3490 C.ar    1  MOL1       -0.0430
      8  C6         7.1660  -17.8730   -9.4290 C.3     1  MOL1        0.0630
      9  C5         7.3980  -18.6250  -10.7510 C.3     1  MOL1        0.0510
     10  C1         5.5270  -21.7960   -9.4790 C.3     1  MOL1        0.0060
     11  N2         6.1450  -20.4790   -9.5350 N.am    1  MOL1       -0.3590
     12  C3         6.7790  -19.9920  -10.7230 C.2     1  MOL1        0.2220
     13  O4         6.8180  -20.7110  -11.7580 O.2     1  MOL1       -0.2750
     14  N7         6.5570  -16.5620   -9.6800 N.am    1  MOL1       -0.3460
     15  C8         6.3840  -16.0350  -10.9970 C.2     1  MOL1        0.2580
     16  O9         6.7670  -16.6930  -12.0010 O.2     1  MOL1       -0.2710
     17 C10         5.7310  -14.7000  -11.2000 C.3     1  MOL1        0.1670
     18 O11         4.4060  -14.8630  -11.7000 O.3     1  MOL1       -0.4800
     19 C12         3.5260  -13.7860  -11.8330 C.ar    1  MOL1        0.1660
     20 C13         2.3660  -13.6870  -11.0330 C.ar    1  MOL1        0.0120
     21 C21         1.5510  -12.5470  -11.1440 C.ar    1  MOL1       -0.0540
     22 C22         1.8560  -11.5470  -12.0670 C.ar    1  MOL1       -0.0580
     23 C23         2.9740  -11.6710  -12.8920 C.ar    1  MOL1       -0.0160
     24 C24         3.8160  -12.7930  -12.7840 C.ar    1  MOL1        0.1610
     25 C14         1.9740  -14.7760  -10.0590 C.3     1  MOL1        0.0280
     26 N15         2.1940  -14.3280   -8.6680 N.3     1  MOL1       -0.2870
     27 C16         3.5270  -14.7150   -8.1780 C.3     1  MOL1        0.0640
     28 C17         2.9530  -15.6650   -7.1460 C.3     1  MOL1        0.2720
     29 F18         3.1720  -15.2640   -5.8390 F       1  MOL1       -0.2040
     30 F19         3.2570  -16.9950   -7.3830 F       1  MOL1       -0.2040
     31 C20         1.5990  -15.2510   -7.6860 C.3     1  MOL1        0.0640
     32 O25         4.9490  -12.9560  -13.5950 O.3     1  MOL1       -0.4930
     33 C26         4.9700  -13.6980  -14.8100 C.3     1  MOL1        0.0780
@<TRIPOS>BOND
     1    33    32    1
     2    32    24    1
     3    23    24   ar
     4    23    22   ar
     5    24    19   ar
     6    22    21   ar
     7    16    15    2
     8    19    18    1
     9    19    20   ar
    10    13    12    2
    11    18    17    1
    12    17    15    1
    13    21    20   ar
    14    20    25    1
    15    15    14   am
    16     9    12    1
    17     9     8    1
    18    12    11   am
    19    25    26    1
    20    14     8    1
    21    11    10    1
    22     8     1    1
    23     1     7   ar
    24     1     2   ar
    25    26    27    1
    26    26    31    1
    27     7     5   ar
    28     2     3   ar
    29    27    28    1
    30    31    28    1
    31     5     4   ar
    32     5     6    1
    33     3     4   ar
    34    30    28    1
    35    28    29    1
