@<TRIPOS>MOLECULE
L3024_0_out.pdbqt
 33 35 0 0 0
SMALL
GASTEIGER

@<TRIPOS>ATOM
      1 C27        15.3170  -18.7330   -0.9090 C.ar    1  MOL1       -0.0240
      2 C28        15.0710  -20.0790   -1.2350 C.ar    1  MOL1       -0.0570
      3 C29        14.5810  -20.9630   -0.2680 C.ar    1  MOL1       -0.0610
      4 C30        14.3340  -20.5140    1.0320 C.ar    1  MOL1       -0.0480
      5 C31        14.5720  -19.1770    1.3690 C.ar    1  MOL1        0.0180
      6 Br32       14.2130  -18.5570    3.1430 Br      1  MOL1       -0.0510
      7 C33        15.0660  -18.2910    0.4060 C.ar    1  MOL1       -0.0430
      8  C6        15.9150  -17.8010   -1.9410 C.3     1  MOL1        0.0630
      9  C5        14.9090  -16.6910   -2.2940 C.3     1  MOL1        0.0510
     10  C1        14.9120  -13.3120   -0.3560 C.3     1  MOL1        0.0060
     11  N2        14.5050  -14.6020   -0.8930 N.am    1  MOL1       -0.3590
     12  C3        15.3530  -15.3570   -1.7650 C.2     1  MOL1        0.2220
     13  O4        16.4840  -14.9070   -2.0930 O.2     1  MOL1       -0.2750
     14  N7        16.2980  -18.5510   -3.1420 N.am    1  MOL1       -0.3460
     15  C8        17.3300  -18.1110   -4.0270 C.2     1  MOL1        0.2580
     16  O9        17.9460  -17.0350   -3.8000 O.2     1  MOL1       -0.2710
     17 C10        17.7000  -18.9290   -5.2270 C.3     1  MOL1        0.1670
     18 O11        18.4800  -18.1570   -6.1370 O.3     1  MOL1       -0.4800
     19 C12        18.2330  -18.1600   -7.5130 C.ar    1  MOL1        0.1660
     20 C13        17.3580  -17.2170   -8.1000 C.ar    1  MOL1        0.0120
     21 C21        17.2000  -17.2060   -9.4960 C.ar    1  MOL1       -0.0540
     22 C22        17.8600  -18.1430  -10.2910 C.ar    1  MOL1       -0.0580
     23 C23        18.6840  -19.1040   -9.7040 C.ar    1  MOL1       -0.0160
     24 C24        18.8730  -19.1220   -8.3100 C.ar    1  MOL1        0.1610
     25 C14        16.5840  -16.2210   -7.2660 C.3     1  MOL1        0.0280
     26 N15        15.1780  -16.6510   -7.1200 N.3     1  MOL1       -0.2870
     27 C16        14.2540  -15.7130   -7.7800 C.3     1  MOL1        0.0640
     28 C17        13.6310  -15.2870   -6.4660 C.3     1  MOL1        0.2720
     29 F18        12.3070  -15.6670   -6.3290 F       1  MOL1       -0.2040
     30 F19        13.8710  -13.9630   -6.1380 F       1  MOL1       -0.2040
     31 C20        14.6070  -16.2530   -5.8220 C.3     1  MOL1        0.0640
     32 O25        19.6920  -20.0720   -7.6810 O.3     1  MOL1       -0.4930
     33 C26        19.6560  -21.4700   -7.9490 C.3     1  MOL1        0.0780
@<TRIPOS>BOND
     1    22    23   ar
     2    22    21   ar
     3    23    24   ar
     4    21    20   ar
     5    24    32    1
     6    24    19   ar
     7    20    19   ar
     8    20    25    1
     9    33    32    1
    10    27    26    1
    11    27    28    1
    12    19    18    1
    13    25    26    1
    14    26    31    1
    15    28    29    1
    16    28    30    1
    17    28    31    1
    18    18    17    1
    19    17    15    1
    20    15    16    2
    21    15    14   am
    22    14     8    1
    23     9     8    1
    24     9    12    1
    25    13    12    2
    26     8     1    1
    27    12    11   am
    28     2     1   ar
    29     2     3   ar
    30     1     7   ar
    31    11    10    1
    32     3     4   ar
    33     7     5   ar
    34     4     5   ar
    35     5     6    1
