@<TRIPOS>MOLECULE
L3024_0_out.pdbqt
 33 35 0 0 0
SMALL
GASTEIGER

@<TRIPOS>ATOM
      1 C27         3.9180  -14.7290   -9.8100 C.ar    1  MOL1       -0.0240
      2 C28         2.5890  -14.3440  -10.0670 C.ar    1  MOL1       -0.0570
      3 C29         1.6260  -14.4090   -9.0550 C.ar    1  MOL1       -0.0610
      4 C30         1.9780  -14.8570   -7.7790 C.ar    1  MOL1       -0.0480
      5 C31         3.2970  -15.2390   -7.5090 C.ar    1  MOL1        0.0180
      6 Br32        3.7830  -15.8320   -5.7560 Br      1  MOL1       -0.0510
      7 C33         4.2610  -15.1810   -8.5200 C.ar    1  MOL1       -0.0430
      8  C6         4.9370  -14.7250  -10.9290 C.3     1  MOL1        0.0630
      9  C5         4.2410  -14.9830  -12.2770 C.3     1  MOL1        0.0510
     10  C1         4.6320  -11.6390  -14.2360 C.3     1  MOL1        0.0060
     11  N2         4.9310  -12.8840  -13.5440 N.am    1  MOL1       -0.3590
     12  C3         3.9000  -13.6990  -12.9760 C.2     1  MOL1        0.2220
     13  O4         2.6930  -13.3420  -13.0620 O.2     1  MOL1       -0.2750
     14  N7         5.9700  -15.7360  -10.6790 N.am    1  MOL1       -0.3460
     15  C8         6.5780  -16.4910  -11.7290 C.2     1  MOL1        0.2580
     16  O9         6.2270  -16.3110  -12.9260 O.2     1  MOL1       -0.2710
     17 C10         7.6480  -17.4940  -11.4210 C.3     1  MOL1        0.1670
     18 O11         7.3480  -18.1880  -10.2120 O.3     1  MOL1       -0.4800
     19 C12         8.0810  -19.3030   -9.7960 C.ar    1  MOL1        0.1660
     20 C13         7.5070  -20.5950   -9.7920 C.ar    1  MOL1        0.0120
     21 C21         8.3040  -21.6980   -9.4420 C.ar    1  MOL1       -0.0540
     22 C22         9.6310  -21.5170   -9.0550 C.ar    1  MOL1       -0.0580
     23 C23        10.1810  -20.2360   -9.0100 C.ar    1  MOL1       -0.0160
     24 C24         9.4080  -19.1180   -9.3760 C.ar    1  MOL1        0.1610
     25 C14         6.0560  -20.8230  -10.1540 C.3     1  MOL1        0.0280
     26 N15         5.4200  -21.7390   -9.1850 N.3     1  MOL1       -0.2870
     27 C16         3.9570  -21.5710   -9.1600 C.3     1  MOL1        0.0640
     28 C17         3.9690  -21.0410   -7.7400 C.3     1  MOL1        0.2720
     29 F18         3.3570  -21.8830   -6.8280 F       1  MOL1       -0.2040
     30 F19         3.5740  -19.7170   -7.6360 F       1  MOL1       -0.2040
     31 C20         5.4740  -21.2160   -7.8090 C.3     1  MOL1        0.0640
     32 O25         9.9220  -17.8140   -9.3450 O.3     1  MOL1       -0.4930
     33 C26        10.7370  -17.2940   -8.2990 C.3     1  MOL1        0.0780
@<TRIPOS>BOND
     1    10    11    1
     2    11    12   am
     3    13    12    2
     4    12     9    1
     5    16    15    2
     6     9     8    1
     7    15    17    1
     8    15    14   am
     9    17    18    1
    10     8    14    1
    11     8     1    1
    12    18    19    1
    13    25    20    1
    14    25    26    1
    15     2     1   ar
    16     2     3   ar
    17     1     7   ar
    18    19    20   ar
    19    19    24   ar
    20    20    21   ar
    21    21    22   ar
    22    24    32    1
    23    24    23   ar
    24    32    33    1
    25    26    27    1
    26    26    31    1
    27    27    28    1
    28     3     4   ar
    29    22    23   ar
    30     7     5   ar
    31    31    28    1
    32     4     5   ar
    33    28    30    1
    34    28    29    1
    35     5     6    1
