@<TRIPOS>MOLECULE
L3024_0_out.pdbqt
 33 35 0 0 0
SMALL
GASTEIGER

@<TRIPOS>ATOM
      1 C27         0.1960  -23.1640   -9.8320 C.ar    1  MOL1       -0.0240
      2 C28        -0.7370  -24.2090   -9.7080 C.ar    1  MOL1       -0.0570
      3 C29        -1.7790  -24.3400  -10.6320 C.ar    1  MOL1       -0.0610
      4 C30        -1.9000  -23.4310  -11.6870 C.ar    1  MOL1       -0.0480
      5 C31        -0.9770  -22.3890  -11.8230 C.ar    1  MOL1        0.0180
      6 Br32       -1.1300  -21.1580  -13.2800 Br      1  MOL1       -0.0510
      7 C33         0.0630  -22.2510  -10.8980 C.ar    1  MOL1       -0.0430
      8  C6         1.2770  -22.9860   -8.7870 C.3     1  MOL1        0.0630
      9  C5         0.6410  -22.7370   -7.4080 C.3     1  MOL1        0.0510
     10  C1        -0.8580  -19.1550   -7.7200 C.3     1  MOL1        0.0060
     11  N2         0.0820  -20.2650   -7.6590 N.am    1  MOL1       -0.3590
     12  C3        -0.3540  -21.6130   -7.4540 C.2     1  MOL1        0.2220
     13  O4        -1.5810  -21.8660   -7.3140 O.2     1  MOL1       -0.2750
     14  N7         2.1610  -21.8750   -9.1560 N.am    1  MOL1       -0.3460
     15  C8         3.3550  -21.5700   -8.4310 C.2     1  MOL1        0.2580
     16  O9         3.6810  -22.2570   -7.4260 O.2     1  MOL1       -0.2710
     17 C10         4.2380  -20.4390   -8.8660 C.3     1  MOL1        0.1670
     18 O11         5.0600  -20.0040   -7.7860 O.3     1  MOL1       -0.4800
     19 C12         6.0970  -19.0850   -7.9670 C.ar    1  MOL1        0.1660
     20 C13         7.3880  -19.5070   -8.3600 C.ar    1  MOL1        0.0120
     21 C21         8.3780  -18.5420   -8.6080 C.ar    1  MOL1       -0.0540
     22 C22         8.1080  -17.1860   -8.4220 C.ar    1  MOL1       -0.0580
     23 C23         6.8490  -16.7750   -7.9850 C.ar    1  MOL1       -0.0160
     24 C24         5.8340  -17.7220   -7.7500 C.ar    1  MOL1        0.1610
     25 C14         7.7330  -20.9710   -8.5200 C.3     1  MOL1        0.0280
     26 N15         8.0560  -21.2730   -9.9300 N.3     1  MOL1       -0.2870
     27 C16         7.8100  -22.6890  -10.2500 C.3     1  MOL1        0.0640
     28 C17         9.2820  -22.9700  -10.4790 C.3     1  MOL1        0.2720
     29 F18         9.5920  -23.2740  -11.7930 F       1  MOL1       -0.2040
     30 F19         9.8340  -23.8420   -9.5550 F       1  MOL1       -0.2040
     31 C20         9.4960  -21.5100  -10.1310 C.3     1  MOL1        0.0640
     32 O25         4.5550  -17.3510   -7.3100 O.3     1  MOL1       -0.4930
     33 C26         4.2560  -16.1290   -6.6430 C.3     1  MOL1        0.0780
@<TRIPOS>BOND
     1     6     5    1
     2     5     4   ar
     3     5     7   ar
     4    29    28    1
     5     4     3   ar
     6     7     1   ar
     7     3     2   ar
     8    28    27    1
     9    28    31    1
    10    28    30    1
    11    27    26    1
    12    31    26    1
    13    26    25    1
    14     1     2   ar
    15     1     8    1
    16    14     8    1
    17    14    15   am
    18    17    15    1
    19    17    18    1
    20     8     9    1
    21    21    22   ar
    22    21    20   ar
    23    25    20    1
    24    15    16    2
    25    22    23   ar
    26    20    19   ar
    27    23    24   ar
    28    19    18    1
    29    19    24   ar
    30    24    32    1
    31    10    11    1
    32    11    12   am
    33    12     9    1
    34    12    13    2
    35    32    33    1
