@<TRIPOS>MOLECULE
L3024_0_out.pdbqt
 33 35 0 0 0
SMALL
GASTEIGER

@<TRIPOS>ATOM
      1 C27        16.4170  -17.7580   -7.7990 C.ar    1  MOL1       -0.0240
      2 C28        16.5690  -16.5760   -8.5460 C.ar    1  MOL1       -0.0570
      3 C29        16.8350  -15.3620   -7.9040 C.ar    1  MOL1       -0.0610
      4 C30        16.9520  -15.3150   -6.5120 C.ar    1  MOL1       -0.0480
      5 C31        16.8070  -16.4840   -5.7570 C.ar    1  MOL1        0.0180
      6 Br32       16.9890  -16.4240   -3.8530 Br      1  MOL1       -0.0510
      7 C33        16.5350  -17.6990   -6.3950 C.ar    1  MOL1       -0.0430
      8  C6        16.0580  -19.0530   -8.4940 C.3     1  MOL1        0.0630
      9  C5        17.0670  -19.3450   -9.6200 C.3     1  MOL1        0.0510
     10  C1        19.0210  -21.9600   -7.4950 C.3     1  MOL1        0.0060
     11  N2        17.9910  -21.0430   -7.9620 N.am    1  MOL1       -0.3590
     12  C3        18.1520  -20.2750   -9.1590 C.2     1  MOL1        0.2220
     13  O4        19.2090  -20.3770   -9.8390 O.2     1  MOL1       -0.2750
     14  N7        14.6940  -18.9810   -9.0290 N.am    1  MOL1       -0.3460
     15  C8        13.5990  -19.6880   -8.4430 C.2     1  MOL1        0.2580
     16  O9        13.7830  -20.4180   -7.4330 O.2     1  MOL1       -0.2710
     17 C10        12.2190  -19.5580   -9.0150 C.3     1  MOL1        0.1670
     18 O11        11.2710  -19.3130   -7.9790 O.3     1  MOL1       -0.4800
     19 C12        10.3040  -18.3090   -8.0820 C.ar    1  MOL1        0.1660
     20 C13         9.0520  -18.5600   -8.6900 C.ar    1  MOL1        0.0120
     21 C21         8.0800  -17.5460   -8.7010 C.ar    1  MOL1       -0.0540
     22 C22         8.3620  -16.2900   -8.1630 C.ar    1  MOL1       -0.0580
     23 C23         9.6150  -16.0290   -7.6090 C.ar    1  MOL1       -0.0160
     24 C24        10.5980  -17.0360   -7.5680 C.ar    1  MOL1        0.1610
     25 C14         8.7300  -19.8920   -9.3310 C.3     1  MOL1        0.0280
     26 N15         7.3010  -19.9560   -9.6980 N.3     1  MOL1       -0.2870
     27 C16         6.6120  -21.0580   -9.0050 C.3     1  MOL1        0.0640
     28 C17         6.3590  -21.8090  -10.2980 C.3     1  MOL1        0.2720
     29 F18         5.0210  -21.8920  -10.6390 F       1  MOL1       -0.2040
     30 F19         7.0360  -23.0150  -10.3830 F       1  MOL1       -0.2040
     31 C20         7.0860  -20.6620  -10.9720 C.3     1  MOL1        0.0640
     32 O25        11.8700  -16.8140   -7.0210 O.3     1  MOL1       -0.4930
     33 C26        12.2790  -15.6000   -6.4010 C.3     1  MOL1        0.0780
@<TRIPOS>BOND
     1    31    28    1
     2    31    26    1
     3    29    28    1
     4    30    28    1
     5    28    27    1
     6    13    12    2
     7    26    25    1
     8    26    27    1
     9     9    12    1
    10     9     8    1
    11    25    20    1
    12    12    11   am
    13    14     8    1
    14    14    15   am
    15    17    15    1
    16    17    18    1
    17    21    20   ar
    18    21    22   ar
    19    20    19   ar
    20     2     3   ar
    21     2     1   ar
    22     8     1    1
    23    15    16    2
    24    22    23   ar
    25    19    18    1
    26    19    24   ar
    27    11    10    1
    28     3     4   ar
    29     1     7   ar
    30    23    24   ar
    31    24    32    1
    32    32    33    1
    33     4     5   ar
    34     7     5   ar
    35     5     6    1
