@<TRIPOS>MOLECULE
L3024_0_out.pdbqt
 33 35 0 0 0
SMALL
GASTEIGER

@<TRIPOS>ATOM
      1 C27         4.4000  -13.5210  -11.9750 C.ar    1  MOL1       -0.0240
      2 C28         4.8490  -13.6750  -13.2990 C.ar    1  MOL1       -0.0570
      3 C29         4.7140  -12.6300  -14.2190 C.ar    1  MOL1       -0.0610
      4 C30         4.1300  -11.4220  -13.8270 C.ar    1  MOL1       -0.0480
      5 C31         3.6820  -11.2540  -12.5120 C.ar    1  MOL1        0.0180
      6 Br32        2.9030   -9.5930  -11.9700 Br      1  MOL1       -0.0510
      7 C33         3.8110  -12.2990  -11.5910 C.ar    1  MOL1       -0.0430
      8  C6         4.4840  -14.6810  -11.0070 C.3     1  MOL1        0.0630
      9  C5         4.1610  -14.2010   -9.5800 C.3     1  MOL1        0.0510
     10  C1         1.2280  -15.6230   -7.4470 C.3     1  MOL1        0.0060
     11  N2         2.5570  -15.2230   -7.8850 N.am    1  MOL1       -0.3590
     12  C3         2.7790  -14.6120   -9.1610 C.2     1  MOL1        0.2220
     13  O4         1.8100  -14.4110   -9.9430 O.2     1  MOL1       -0.2750
     14  N7         5.8180  -15.2890  -11.0570 N.am    1  MOL1       -0.3460
     15  C8         6.3090  -16.1520  -10.0290 C.2     1  MOL1        0.2580
     16  O9         5.5960  -16.4100   -9.0230 O.2     1  MOL1       -0.2710
     17 C10         7.6700  -16.7690  -10.1430 C.3     1  MOL1        0.1670
     18 O11         7.9710  -17.5330   -8.9770 O.3     1  MOL1       -0.4800
     19 C12         8.4540  -18.8420   -9.0520 C.ar    1  MOL1        0.1660
     20 C13         7.5820  -19.9500   -8.9540 C.ar    1  MOL1        0.0120
     21 C21         8.0990  -21.2460   -9.1150 C.ar    1  MOL1       -0.0540
     22 C22         9.4650  -21.4420   -9.3200 C.ar    1  MOL1       -0.0580
     23 C23        10.3310  -20.3500   -9.3660 C.ar    1  MOL1       -0.0160
     24 C24         9.8330  -19.0410   -9.2280 C.ar    1  MOL1        0.1610
     25 C14         6.1040  -19.7790   -8.6790 C.3     1  MOL1        0.0280
     26 N15         5.5210  -21.0440   -8.1880 N.3     1  MOL1       -0.2870
     27 C16         4.2750  -21.3770   -8.8990 C.3     1  MOL1        0.0640
     28 C17         3.4310  -21.2030   -7.6520 C.3     1  MOL1        0.2720
     29 F18         2.8630  -22.3800   -7.1960 F       1  MOL1       -0.2040
     30 F19         2.5420  -20.1420   -7.7240 F       1  MOL1       -0.2040
     31 C20         4.7330  -20.8520   -6.9590 C.3     1  MOL1        0.0640
     32 O25        10.6700  -17.9170   -9.2680 O.3     1  MOL1       -0.4930
     33 C26        12.0890  -17.9720   -9.3700 C.3     1  MOL1        0.0780
@<TRIPOS>BOND
     1     3     4   ar
     2     3     2   ar
     3     4     5   ar
     4     2     1   ar
     5     5     6    1
     6     5     7   ar
     7     1     7   ar
     8     1     8    1
     9    14     8    1
    10    14    15   am
    11     8     9    1
    12    17    15    1
    13    17    18    1
    14    15    16    2
    15    13    12    2
    16     9    12    1
    17    33    32    1
    18    23    22   ar
    19    23    24   ar
    20    22    21   ar
    21    32    24    1
    22    24    19   ar
    23    12    11   am
    24    21    20   ar
    25    19    18    1
    26    19    20   ar
    27    20    25    1
    28    27    26    1
    29    27    28    1
    30    25    26    1
    31    26    31    1
    32    11    10    1
    33    30    28    1
    34    28    29    1
    35    28    31    1
