@<TRIPOS>MOLECULE
L3024_0_out.pdbqt
 33 35 0 0 0
SMALL
GASTEIGER

@<TRIPOS>ATOM
      1 C27        12.4890  -18.2160   -8.0650 C.ar    1  MOL1       -0.0240
      2 C28        11.5130  -17.5120   -7.3360 C.ar    1  MOL1       -0.0570
      3 C29        10.2580  -17.2550   -7.8990 C.ar    1  MOL1       -0.0610
      4 C30         9.9660  -17.6960   -9.1920 C.ar    1  MOL1       -0.0480
      5 C31        10.9260  -18.4010   -9.9270 C.ar    1  MOL1        0.0180
      6 Br32       10.5170  -19.0240  -11.6890 Br      1  MOL1       -0.0510
      7 C33        12.1830  -18.6550   -9.3690 C.ar    1  MOL1       -0.0430
      8  C6        13.8670  -18.4270   -7.4770 C.3     1  MOL1        0.0630
      9  C5        13.7970  -19.4360   -6.3160 C.3     1  MOL1        0.0510
     10  C1        13.8470  -22.9200   -8.0580 C.3     1  MOL1        0.0060
     11  N2        14.2360  -21.5970   -7.5910 N.am    1  MOL1       -0.3590
     12  C3        13.3630  -20.7920   -6.7920 C.2     1  MOL1        0.2220
     13  O4        12.2190  -21.2210   -6.4770 O.2     1  MOL1       -0.2750
     14  N7        14.4250  -17.1500   -7.0180 N.am    1  MOL1       -0.3460
     15  C8        15.6130  -16.5850   -7.5770 C.2     1  MOL1        0.2580
     16  O9        16.2330  -17.1880   -8.4920 O.2     1  MOL1       -0.2710
     17 C10        16.1250  -15.2630   -7.0890 C.3     1  MOL1        0.1670
     18 O11        17.0990  -15.4530   -6.0640 O.3     1  MOL1       -0.4800
     19 C12        16.8850  -16.3210   -4.9900 C.ar    1  MOL1        0.1660
     20 C13        17.5750  -17.5510   -4.8950 C.ar    1  MOL1        0.0120
     21 C21        17.3890  -18.3560   -3.7590 C.ar    1  MOL1       -0.0540
     22 C22        16.4970  -17.9710   -2.7580 C.ar    1  MOL1       -0.0580
     23 C23        15.7790  -16.7810   -2.8770 C.ar    1  MOL1       -0.0160
     24 C24        15.9640  -15.9490   -3.9970 C.ar    1  MOL1        0.1610
     25 C14        18.5100  -18.0260   -5.9860 C.3     1  MOL1        0.0280
     26 N15        18.4680  -19.4990   -6.0950 N.3     1  MOL1       -0.2870
     27 C16        19.4970  -20.0020   -7.0210 C.3     1  MOL1        0.0640
     28 C17        18.4640  -20.5000   -8.0140 C.3     1  MOL1        0.2720
     29 F18        18.4320  -21.8780   -8.1390 F       1  MOL1       -0.2040
     30 F19        18.4850  -19.8270   -9.2250 F       1  MOL1       -0.2040
     31 C20        17.4360  -19.9570   -7.0410 C.3     1  MOL1        0.0640
     32 O25        15.2620  -14.7460   -4.1550 O.3     1  MOL1       -0.4930
     33 C26        13.8770  -14.6570   -4.4750 C.3     1  MOL1        0.0780
@<TRIPOS>BOND
     1     6     5    1
     2     5     7   ar
     3     5     4   ar
     4     7     1   ar
     5    30    28    1
     6     4     3   ar
     7    16    15    2
     8    29    28    1
     9     1     8    1
    10     1     2   ar
    11    10    11    1
    12    28    31    1
    13    28    27    1
    14     3     2   ar
    15    11    12   am
    16    15    17    1
    17    15    14   am
    18     8    14    1
    19     8     9    1
    20    17    18    1
    21    31    26    1
    22    27    26    1
    23    12    13    2
    24    12     9    1
    25    26    25    1
    26    18    19    1
    27    25    20    1
    28    19    20   ar
    29    19    24   ar
    30    20    21   ar
    31    33    32    1
    32    32    24    1
    33    24    23   ar
    34    21    22   ar
    35    23    22   ar
