@<TRIPOS>MOLECULE
L3024_0_out.pdbqt
 33 35 0 0 0
SMALL
GASTEIGER

@<TRIPOS>ATOM
      1 C27        16.6820  -17.4560   -8.1320 C.ar    1  MOL1       -0.0240
      2 C28        16.6150  -18.8570   -8.2410 C.ar    1  MOL1       -0.0570
      3 C29        17.1600  -19.5080   -9.3530 C.ar    1  MOL1       -0.0610
      4 C30        17.7760  -18.7680  -10.3660 C.ar    1  MOL1       -0.0480
      5 C31        17.8530  -17.3740  -10.2680 C.ar    1  MOL1        0.0180
      6 Br32       18.7160  -16.3640  -11.6440 Br      1  MOL1       -0.0510
      7 C33        17.3040  -16.7200   -9.1600 C.ar    1  MOL1       -0.0430
      8  C6        16.0260  -16.7550   -6.9620 C.3     1  MOL1        0.0630
      9  C5        16.7470  -17.1270   -5.6530 C.3     1  MOL1        0.0510
     10  C1        15.2760  -14.5360   -3.1440 C.3     1  MOL1        0.0060
     11  N2        15.9540  -15.1290   -4.2880 N.am    1  MOL1       -0.3590
     12  C3        16.0500  -16.5470   -4.4570 C.2     1  MOL1        0.2220
     13  O4        15.5430  -17.3210   -3.6000 O.2     1  MOL1       -0.2750
     14  N7        14.6050  -17.1110   -6.8880 N.am    1  MOL1       -0.3460
     15  C8        13.5630  -16.1800   -7.1880 C.2     1  MOL1        0.2580
     16  O9        13.8430  -14.9980   -7.5220 O.2     1  MOL1       -0.2710
     17 C10        12.1260  -16.6040   -7.1220 C.3     1  MOL1        0.1670
     18 O11        11.7390  -17.2460   -8.3340 O.3     1  MOL1       -0.4800
     19 C12        10.8530  -18.3260   -8.3500 C.ar    1  MOL1        0.1660
     20 C13        11.2980  -19.6420   -8.0850 C.ar    1  MOL1        0.0120
     21 C21        10.3590  -20.6860   -8.0340 C.ar    1  MOL1       -0.0540
     22 C22         9.0110  -20.4380   -8.2890 C.ar    1  MOL1       -0.0580
     23 C23         8.5810  -19.1480   -8.6000 C.ar    1  MOL1       -0.0160
     24 C24         9.5000  -18.0830   -8.6370 C.ar    1  MOL1        0.1610
     25 C14        12.7600  -19.9570   -7.8560 C.3     1  MOL1        0.0280
     26 N15        12.9280  -21.3750   -7.4770 N.3     1  MOL1       -0.2870
     27 C16        13.3450  -21.5140   -6.0720 C.3     1  MOL1        0.0640
     28 C17        14.7000  -22.0780   -6.4530 C.3     1  MOL1        0.2720
     29 F18        14.8750  -23.4000   -6.0830 F       1  MOL1       -0.2040
     30 F19        15.7620  -21.2550   -6.1150 F       1  MOL1       -0.2040
     31 C20        14.2390  -21.9070   -7.8870 C.3     1  MOL1        0.0640
     32 O25         9.1090  -16.7720   -8.9470 O.3     1  MOL1       -0.4930
     33 C26         7.8030  -16.4000   -9.3750 C.3     1  MOL1        0.0780
@<TRIPOS>BOND
     1     6     5    1
     2     4     5   ar
     3     4     3   ar
     4     5     7   ar
     5    33    32    1
     6     3     2   ar
     7     7     1   ar
     8    32    24    1
     9    24    23   ar
    10    24    19   ar
    11    23    22   ar
    12    19    18    1
    13    19    20   ar
    14    18    17    1
    15    22    21   ar
    16     2     1   ar
    17     1     8    1
    18    20    21   ar
    19    20    25    1
    20    31    26    1
    21    31    28    1
    22    25    26    1
    23    16    15    2
    24    26    27    1
    25    15    17    1
    26    15    14   am
    27     8    14    1
    28     8     9    1
    29    28    30    1
    30    28    29    1
    31    28    27    1
    32     9    12    1
    33    12    11   am
    34    12    13    2
    35    11    10    1
