@<TRIPOS>MOLECULE
L3024_0_out.pdbqt
 33 35 0 0 0
SMALL
GASTEIGER

@<TRIPOS>ATOM
      1 C27        14.8180  -18.2250   -1.1510 C.ar    1  MOL1       -0.0240
      2 C28        14.3700  -18.0220    0.1670 C.ar    1  MOL1       -0.0570
      3 C29        14.0470  -16.7360    0.6140 C.ar    1  MOL1       -0.0610
      4 C30        14.1700  -15.6430   -0.2480 C.ar    1  MOL1       -0.0480
      5 C31        14.6110  -15.8320   -1.5620 C.ar    1  MOL1        0.0180
      6 Br32       14.7570  -14.3370   -2.7480 Br      1  MOL1       -0.0510
      7 C33        14.9390  -17.1150   -2.0110 C.ar    1  MOL1       -0.0430
      8  C6        15.2340  -19.6080   -1.6040 C.3     1  MOL1        0.0630
      9  C5        15.8530  -20.3850   -0.4280 C.3     1  MOL1        0.0510
     10  C1        14.6310  -23.6770    1.2560 C.3     1  MOL1        0.0060
     11  N2        15.4800  -22.5930    0.7850 N.am    1  MOL1       -0.3590
     12  C3        14.9530  -21.4930    0.0340 C.2     1  MOL1        0.2220
     13  O4        13.7230  -21.4480   -0.2420 O.2     1  MOL1       -0.2750
     14  N7        16.1840  -19.5130   -2.7180 N.am    1  MOL1       -0.3460
     15  C8        15.8310  -19.8550   -4.0600 C.2     1  MOL1        0.2580
     16  O9        14.6710  -20.2660   -4.3280 O.2     1  MOL1       -0.2710
     17 C10        16.8340  -19.7150   -5.1660 C.3     1  MOL1        0.1670
     18 O11        16.1760  -19.4900   -6.4110 O.3     1  MOL1       -0.4800
     19 C12        16.8710  -19.4590   -7.6230 C.ar    1  MOL1        0.1660
     20 C13        17.4330  -18.2580   -8.1130 C.ar    1  MOL1        0.0120
     21 C21        18.1910  -18.2880   -9.2950 C.ar    1  MOL1       -0.0540
     22 C22        18.3500  -19.4790  -10.0040 C.ar    1  MOL1       -0.0580
     23 C23        17.7530  -20.6530   -9.5450 C.ar    1  MOL1       -0.0160
     24 C24        17.0050  -20.6510   -8.3530 C.ar    1  MOL1        0.1610
     25 C14        17.2370  -16.9380   -7.4000 C.3     1  MOL1        0.0280
     26 N15        16.5380  -15.9770   -8.2770 N.3     1  MOL1       -0.2870
     27 C16        16.5120  -14.6270   -7.6880 C.3     1  MOL1        0.0640
     28 C17        15.0060  -14.6490   -7.5200 C.3     1  MOL1        0.2720
     29 F18        14.3430  -13.7370   -8.3220 F       1  MOL1       -0.2040
     30 F19        14.5930  -14.6380   -6.1980 F       1  MOL1       -0.2040
     31 C20        15.0750  -16.0410   -8.1170 C.3     1  MOL1        0.0640
     32 O25        16.3880  -21.8100   -7.8580 O.3     1  MOL1       -0.4930
     33 C26        17.0300  -22.7720   -7.0280 C.3     1  MOL1        0.0780
@<TRIPOS>BOND
     1    22    23   ar
     2    22    21   ar
     3    23    24   ar
     4    21    20   ar
     5    24    32    1
     6    24    19   ar
     7    29    28    1
     8    26    31    1
     9    26    27    1
    10    26    25    1
    11    31    28    1
    12    20    19   ar
    13    20    25    1
    14    32    33    1
    15    27    28    1
    16    19    18    1
    17    28    30    1
    18    18    17    1
    19    17    15    1
    20    16    15    2
    21    15    14   am
    22     6     5    1
    23    14     8    1
    24     7     5   ar
    25     7     1   ar
    26     8     1    1
    27     8     9    1
    28     5     4   ar
    29     1     2   ar
    30     9    12    1
    31     4     3   ar
    32    13    12    2
    33    12    11   am
    34     2     3   ar
    35    11    10    1
