@<TRIPOS>MOLECULE
L3024_0_out.pdbqt
 33 35 0 0 0
SMALL
GASTEIGER

@<TRIPOS>ATOM
      1 C27         8.2750  -20.1090  -10.0620 C.ar    1  MOL1       -0.0240
      2 C28         7.0570  -20.2690  -10.7480 C.ar    1  MOL1       -0.0570
      3 C29         6.6150  -21.5440  -11.1160 C.ar    1  MOL1       -0.0610
      4 C30         7.3820  -22.6700  -10.8040 C.ar    1  MOL1       -0.0480
      5 C31         8.5940  -22.5240  -10.1180 C.ar    1  MOL1        0.0180
      6 Br32        9.6330  -24.0680   -9.6720 Br      1  MOL1       -0.0510
      7 C33         9.0420  -21.2510   -9.7540 C.ar    1  MOL1       -0.0430
      8  C6         8.7810  -18.7210   -9.7320 C.3     1  MOL1        0.0630
      9  C5         8.0260  -17.6720  -10.5670 C.3     1  MOL1        0.0510
     10  C1         5.7770  -16.6340   -7.5610 C.3     1  MOL1        0.0060
     11  N2         6.7500  -17.3310   -8.3900 N.am    1  MOL1       -0.3590
     12  C3         7.0090  -16.9380   -9.7420 C.2     1  MOL1        0.2220
     13  O4         6.3830  -15.9680  -10.2490 O.2     1  MOL1       -0.2750
     14  N7        10.2250  -18.6350   -9.9770 N.am    1  MOL1       -0.3460
     15  C8        11.1250  -18.0130   -9.0570 C.2     1  MOL1        0.2580
     16  O9        10.6910  -17.5010   -7.9910 O.2     1  MOL1       -0.2710
     17 C10        12.5960  -17.9760   -9.3450 C.3     1  MOL1        0.1670
     18 O11        13.3320  -17.7240   -8.1500 O.3     1  MOL1       -0.4800
     19 C12        14.4810  -16.9290   -8.1400 C.ar    1  MOL1        0.1660
     20 C13        15.7300  -17.4450   -8.5530 C.ar    1  MOL1        0.0120
     21 C21        16.8430  -16.5890   -8.6020 C.ar    1  MOL1       -0.0540
     22 C22        16.7300  -15.2570   -8.2030 C.ar    1  MOL1       -0.0580
     23 C23        15.5070  -14.7630   -7.7480 C.ar    1  MOL1       -0.0160
     24 C24        14.3740  -15.5970   -7.7090 C.ar    1  MOL1        0.1610
     25 C14        15.9040  -18.8970   -8.9420 C.3     1  MOL1        0.0280
     26 N15        17.3170  -19.3030   -8.8020 N.3     1  MOL1       -0.2870
     27 C16        17.8370  -19.8910  -10.0480 C.3     1  MOL1        0.0640
     28 C17        18.0070  -21.2590   -9.4180 C.3     1  MOL1        0.2720
     29 F18        19.3270  -21.6580   -9.3020 F       1  MOL1       -0.2040
     30 F19        17.1740  -22.2270   -9.9550 F       1  MOL1       -0.2040
     31 C20        17.4550  -20.6210   -8.1580 C.3     1  MOL1        0.0640
     32 O25        13.1270  -15.1390   -7.2580 O.3     1  MOL1       -0.4930
     33 C26        12.7200  -15.1250   -5.8940 C.3     1  MOL1        0.0780
@<TRIPOS>BOND
     1     3     4   ar
     2     3     2   ar
     3     4     5   ar
     4     2     1   ar
     5     9    12    1
     6     9     8    1
     7    13    12    2
     8     5     7   ar
     9     5     6    1
    10     1     7   ar
    11     1     8    1
    12    27    28    1
    13    27    26    1
    14    14     8    1
    15    14    15   am
    16    30    28    1
    17    12    11   am
    18    28    29    1
    19    28    31    1
    20    17    15    1
    21    17    18    1
    22    15    16    2
    23    25    26    1
    24    25    20    1
    25    26    31    1
    26    21    20   ar
    27    21    22   ar
    28    20    19   ar
    29    11    10    1
    30    22    23   ar
    31    18    19    1
    32    19    24   ar
    33    23    24   ar
    34    24    32    1
    35    32    33    1
