@<TRIPOS>MOLECULE
L3024_0_out.pdbqt
 33 35 0 0 0
SMALL
GASTEIGER

@<TRIPOS>ATOM
      1 C27         7.0330  -17.8650   -8.3540 C.ar    1  MOL1       -0.0240
      2 C28         6.5250  -16.6680   -7.8180 C.ar    1  MOL1       -0.0570
      3 C29         5.2540  -16.6370   -7.2340 C.ar    1  MOL1       -0.0610
      4 C30         4.4790  -17.7990   -7.1780 C.ar    1  MOL1       -0.0480
      5 C31         4.9740  -18.9980   -7.7050 C.ar    1  MOL1        0.0180
      6 Br32        3.9220  -20.5930   -7.6090 Br      1  MOL1       -0.0510
      7 C33         6.2420  -19.0310   -8.2950 C.ar    1  MOL1       -0.0430
      8  C6         8.3770  -17.8730   -9.0490 C.3     1  MOL1        0.0630
      9  C5         8.2030  -18.2600  -10.5290 C.3     1  MOL1        0.0510
     10  C1         8.9850  -22.0480  -10.9890 C.3     1  MOL1        0.0060
     11  N2         8.3040  -20.8010  -10.6720 N.am    1  MOL1       -0.3590
     12  C3         8.9360  -19.5290  -10.8560 C.2     1  MOL1        0.2220
     13  O4        10.1160  -19.4670  -11.2970 O.2     1  MOL1       -0.2750
     14  N7         9.2920  -18.8020   -8.3760 N.am    1  MOL1       -0.3460
     15  C8        10.5210  -18.3770   -7.7850 C.2     1  MOL1        0.2580
     16  O9        10.8660  -17.1660   -7.8360 O.2     1  MOL1       -0.2710
     17 C10        11.4070  -19.3640   -7.0860 C.3     1  MOL1        0.1670
     18 O11        12.7200  -19.3370   -7.6420 O.3     1  MOL1       -0.4800
     19 C12        13.8330  -19.8060   -6.9380 C.ar    1  MOL1        0.1660
     20 C13        14.5860  -18.9470   -6.1050 C.ar    1  MOL1        0.0120
     21 C21        15.6480  -19.4780   -5.3550 C.ar    1  MOL1       -0.0540
     22 C22        15.9890  -20.8260   -5.4660 C.ar    1  MOL1       -0.0580
     23 C23        15.2760  -21.6610   -6.3270 C.ar    1  MOL1       -0.0160
     24 C24        14.1950  -21.1560   -7.0730 C.ar    1  MOL1        0.1610
     25 C14        14.2800  -17.4690   -6.0000 C.3     1  MOL1        0.0280
     26 N15        14.9840  -16.7200   -7.0610 N.3     1  MOL1       -0.2870
     27 C16        15.6450  -15.5170   -6.5270 C.3     1  MOL1        0.0640
     28 C17        14.7380  -14.5840   -7.3030 C.3     1  MOL1        0.2720
     29 F18        15.3930  -13.8620   -8.2850 F       1  MOL1       -0.2040
     30 F19        13.9100  -13.8160   -6.5000 F       1  MOL1       -0.2040
     31 C20        14.0740  -15.8450   -7.8210 C.3     1  MOL1        0.0640
     32 O25        13.4540  -21.9610   -7.9500 O.3     1  MOL1       -0.4930
     33 C26        13.8050  -23.2930   -8.3120 C.3     1  MOL1        0.0780
@<TRIPOS>BOND
     1    13    12    2
     2    10    11    1
     3    12    11   am
     4    12     9    1
     5     9     8    1
     6     8    14    1
     7     8     1    1
     8    14    15   am
     9     1     7   ar
    10     1     2   ar
    11    33    32    1
    12     7     5   ar
    13    29    28    1
    14    32    24    1
    15    16    15    2
    16    31    28    1
    17    31    26    1
    18     2     3   ar
    19    15    17    1
    20     5     6    1
    21     5     4   ar
    22    18    17    1
    23    18    19    1
    24    28    27    1
    25    28    30    1
    26     3     4   ar
    27    24    19   ar
    28    24    23   ar
    29    26    27    1
    30    26    25    1
    31    19    20   ar
    32    23    22   ar
    33    20    25    1
    34    20    21   ar
    35    22    21   ar
