@<TRIPOS>MOLECULE
L3024_0_out.pdbqt
 33 35 0 0 0
SMALL
GASTEIGER

@<TRIPOS>ATOM
      1 C27         7.2130  -16.9910  -10.3350 C.ar    1  MOL1       -0.0240
      2 C28         7.6000  -17.7740  -11.4380 C.ar    1  MOL1       -0.0570
      3 C29         7.1700  -17.4420  -12.7270 C.ar    1  MOL1       -0.0610
      4 C30         6.3500  -16.3290  -12.9280 C.ar    1  MOL1       -0.0480
      5 C31         5.9600  -15.5390  -11.8400 C.ar    1  MOL1        0.0180
      6 Br32        4.8560  -14.0020  -12.1180 Br      1  MOL1       -0.0510
      7 C33         6.3840  -15.8710  -10.5490 C.ar    1  MOL1       -0.0430
      8  C6         7.6230  -17.3980   -8.9360 C.3     1  MOL1        0.0630
      9  C5         6.7140  -16.7120   -7.9000 C.3     1  MOL1        0.0510
     10  C1         4.4540  -19.8590   -7.4970 C.3     1  MOL1        0.0060
     11  N2         5.5510  -18.9780   -7.8700 N.am    1  MOL1       -0.3590
     12  C3         5.5630  -17.5930   -7.5090 C.2     1  MOL1        0.2220
     13  O4         4.6020  -17.1020   -6.8550 O.2     1  MOL1       -0.2750
     14  N7         9.0290  -17.0540   -8.6980 N.am    1  MOL1       -0.3460
     15  C8         9.9590  -17.9750   -8.1250 C.2     1  MOL1        0.2580
     16  O9         9.5860  -19.1310   -7.7920 O.2     1  MOL1       -0.2710
     17 C10        11.3920  -17.5810   -7.9280 C.3     1  MOL1        0.1670
     18 O11        12.2580  -18.6670   -8.2490 O.3     1  MOL1       -0.4800
     19 C12        13.2470  -19.1130   -7.3690 C.ar    1  MOL1        0.1660
     20 C13        14.4060  -18.3420   -7.1200 C.ar    1  MOL1        0.0120
     21 C21        15.3360  -18.7910   -6.1670 C.ar    1  MOL1       -0.0540
     22 C22        15.1450  -20.0060   -5.5100 C.ar    1  MOL1       -0.0580
     23 C23        14.0260  -20.7890   -5.7940 C.ar    1  MOL1       -0.0160
     24 C24        13.0710  -20.3510   -6.7290 C.ar    1  MOL1        0.1610
     25 C14        14.6730  -17.0460   -7.8520 C.3     1  MOL1        0.0280
     26 N15        14.9970  -15.9690   -6.8940 N.3     1  MOL1       -0.2870
     27 C16        14.1460  -16.0380   -5.6940 C.3     1  MOL1        0.0640
     28 C17        13.4600  -14.7250   -6.0160 C.3     1  MOL1        0.2720
     29 F18        13.7410  -13.7150   -5.1120 F       1  MOL1       -0.2040
     30 F19        12.1120  -14.8560   -6.3090 F       1  MOL1       -0.2040
     31 C20        14.3440  -14.6960   -7.2470 C.3     1  MOL1        0.0640
     32 O25        11.9330  -21.1090   -7.0440 O.3     1  MOL1       -0.4930
     33 C26        11.9420  -22.2700   -7.8670 C.3     1  MOL1        0.0780
@<TRIPOS>BOND
     1     4     3   ar
     2     4     5   ar
     3     3     2   ar
     4     6     5    1
     5     5     7   ar
     6     2     1   ar
     7     7     1   ar
     8     1     8    1
     9     8    14    1
    10     8     9    1
    11    14    15   am
    12    18    17    1
    13    18    19    1
    14    15    17    1
    15    15    16    2
    16     9    12    1
    17    11    12   am
    18    11    10    1
    19    33    32    1
    20    25    20    1
    21    25    26    1
    22    12    13    2
    23    19    20   ar
    24    19    24   ar
    25    31    26    1
    26    31    28    1
    27    20    21   ar
    28    32    24    1
    29    26    27    1
    30    24    23   ar
    31    30    28    1
    32    21    22   ar
    33    28    27    1
    34    28    29    1
    35    23    22   ar
