@<TRIPOS>MOLECULE
L3024_0_out.pdbqt
 33 35 0 0 0
SMALL
GASTEIGER

@<TRIPOS>ATOM
      1 C27         5.7430  -17.0840   -8.4340 C.ar    1  MOL1       -0.0240
      2 C28         5.1920  -17.0490   -7.1400 C.ar    1  MOL1       -0.0570
      3 C29         4.2150  -16.1020   -6.8120 C.ar    1  MOL1       -0.0610
      4 C30         3.7800  -15.1830   -7.7710 C.ar    1  MOL1       -0.0480
      5 C31         4.3180  -15.2090   -9.0620 C.ar    1  MOL1        0.0180
      6 Br32        3.7060  -13.9640  -10.3800 Br      1  MOL1       -0.0510
      7 C33         5.2980  -16.1510   -9.3920 C.ar    1  MOL1       -0.0430
      8  C6         6.8500  -18.0640   -8.7590 C.3     1  MOL1        0.0630
      9  C5         6.4870  -19.4640   -8.2320 C.3     1  MOL1        0.0510
     10  C1         6.7780  -21.4590  -11.5650 C.3     1  MOL1        0.0060
     11  N2         7.0570  -20.5440  -10.4670 N.am    1  MOL1       -0.3590
     12  C3         6.1660  -20.4080   -9.3540 C.2     1  MOL1        0.2220
     13  O4         5.1040  -21.0860   -9.3080 O.2     1  MOL1       -0.2750
     14  N7         8.1180  -17.6070   -8.1810 N.am    1  MOL1       -0.3460
     15  C8         9.3430  -17.6060   -8.9180 C.2     1  MOL1        0.2580
     16  O9         9.3690  -18.0170  -10.1080 O.2     1  MOL1       -0.2710
     17 C10        10.6070  -17.1040   -8.2870 C.3     1  MOL1        0.1670
     18 O11        11.7390  -17.7810   -8.8280 O.3     1  MOL1       -0.4800
     19 C12        12.4770  -18.7050   -8.0830 C.ar    1  MOL1        0.1660
     20 C13        13.5410  -18.2890   -7.2510 C.ar    1  MOL1        0.0120
     21 C21        14.2050  -19.2410   -6.4590 C.ar    1  MOL1       -0.0540
     22 C22        13.8510  -20.5880   -6.5270 C.ar    1  MOL1       -0.0580
     23 C23        12.8340  -21.0040   -7.3870 C.ar    1  MOL1       -0.0160
     24 C24        12.1420  -20.0650   -8.1750 C.ar    1  MOL1        0.1610
     25 C14        13.9880  -16.8450   -7.1910 C.3     1  MOL1        0.0280
     26 N15        15.3030  -16.7390   -6.5270 N.3     1  MOL1       -0.2870
     27 C16        15.5750  -15.3620   -6.0800 C.3     1  MOL1        0.0640
     28 C17        16.7250  -15.1950   -7.0530 C.3     1  MOL1        0.2720
     29 F18        17.9600  -15.0740   -6.4400 F       1  MOL1       -0.2040
     30 F19        16.4910  -14.2460   -8.0350 F       1  MOL1       -0.2040
     31 C20        16.4060  -16.6100   -7.4950 C.3     1  MOL1        0.0640
     32 O25        11.1140  -20.4420   -9.0520 O.3     1  MOL1       -0.4930
     33 C26        10.0590  -21.3380   -8.7190 C.3     1  MOL1        0.0780
@<TRIPOS>BOND
     1    10    11    1
     2    11    12   am
     3     6     5    1
     4    16    15    2
     5     7     5   ar
     6     7     1   ar
     7    12    13    2
     8    12     9    1
     9     5     4   ar
    10    32    33    1
    11    32    24    1
    12    15    17    1
    13    15    14   am
    14    18    17    1
    15    18    19    1
    16     8     1    1
    17     8     9    1
    18     8    14    1
    19     1     2   ar
    20    24    19   ar
    21    24    23   ar
    22    19    20   ar
    23    30    28    1
    24     4     3   ar
    25    31    28    1
    26    31    26    1
    27    23    22   ar
    28    20    25    1
    29    20    21   ar
    30    25    26    1
    31     2     3   ar
    32    28    29    1
    33    28    27    1
    34    26    27    1
    35    22    21   ar
