@<TRIPOS>MOLECULE
L3024_0_out.pdbqt
 33 35 0 0 0
SMALL
GASTEIGER

@<TRIPOS>ATOM
      1 C27         0.3950  -22.0140   -8.7510 C.ar    1  MOL1       -0.0240
      2 C28         0.4050  -23.0840   -7.8390 C.ar    1  MOL1       -0.0570
      3 C29        -0.5410  -23.1450   -6.8100 C.ar    1  MOL1       -0.0610
      4 C30        -1.5030  -22.1390   -6.6810 C.ar    1  MOL1       -0.0480
      5 C31        -1.5250  -21.0700   -7.5840 C.ar    1  MOL1        0.0180
      6 Br32       -2.8560  -19.7060   -7.4210 Br      1  MOL1       -0.0510
      7 C33        -0.5780  -21.0040   -8.6110 C.ar    1  MOL1       -0.0430
      8  C6         1.4660  -21.9180   -9.8170 C.3     1  MOL1        0.0630
      9  C5         1.2430  -23.0010  -10.8870 C.3     1  MOL1        0.0510
     10  C1        -2.1130  -21.9130  -12.5370 C.3     1  MOL1        0.0060
     11  N2        -0.7370  -21.9130  -12.0610 N.am    1  MOL1       -0.3590
     12  C3        -0.1830  -23.0280  -11.3550 C.2     1  MOL1        0.2220
     13  O4        -0.8910  -24.0460  -11.1240 O.2     1  MOL1       -0.2750
     14  N7         2.7960  -22.0530   -9.2140 N.am    1  MOL1       -0.3460
     15  C8         3.3140  -21.1090   -8.2750 C.2     1  MOL1        0.2580
     16  O9         2.6300  -20.1060   -7.9380 O.2     1  MOL1       -0.2710
     17 C10         4.6710  -21.3080   -7.6690 C.3     1  MOL1        0.1670
     18 O11         5.1710  -20.0790   -7.1490 O.3     1  MOL1       -0.4800
     19 C12         5.8790  -19.1720   -7.9420 C.ar    1  MOL1        0.1660
     20 C13         6.9250  -19.6030   -8.7890 C.ar    1  MOL1        0.0120
     21 C21         7.5570  -18.6690   -9.6280 C.ar    1  MOL1       -0.0540
     22 C22         7.1910  -17.3240   -9.5910 C.ar    1  MOL1       -0.0580
     23 C23         6.1930  -16.8920   -8.7180 C.ar    1  MOL1       -0.0160
     24 C24         5.5320  -17.8120   -7.8830 C.ar    1  MOL1        0.1610
     25 C14         7.3860  -21.0440   -8.8170 C.3     1  MOL1        0.0280
     26 N15         8.2130  -21.2980  -10.0140 N.3     1  MOL1       -0.2870
     27 C16         7.8320  -22.5560  -10.6790 C.3     1  MOL1        0.0640
     28 C17         9.1610  -23.2120  -10.3600 C.3     1  MOL1        0.2720
     29 F18         9.9350  -23.4730  -11.4770 F       1  MOL1       -0.2040
     30 F19         9.0590  -24.2820   -9.4850 F       1  MOL1       -0.2040
     31 C20         9.5110  -21.9060   -9.6740 C.3     1  MOL1        0.0640
     32 O25         4.5240  -17.4190   -6.9900 O.3     1  MOL1       -0.4930
     33 C26         4.4230  -16.1220   -6.4110 C.3     1  MOL1        0.0780
@<TRIPOS>BOND
     1    10    11    1
     2    11    12   am
     3    29    28    1
     4    12    13    2
     5    12     9    1
     6     9     8    1
     7    27    28    1
     8    27    26    1
     9    28    31    1
    10    28    30    1
    11    26    31    1
    12    26    25    1
    13     8    14    1
    14     8     1    1
    15    21    22   ar
    16    21    20   ar
    17    22    23   ar
    18    14    15   am
    19    25    20    1
    20    20    19   ar
    21     1     7   ar
    22     1     2   ar
    23    23    24   ar
    24     7     5   ar
    25    15    16    2
    26    15    17    1
    27    19    24   ar
    28    19    18    1
    29    24    32    1
    30     2     3   ar
    31    17    18    1
    32     5     6    1
    33     5     4   ar
    34    32    33    1
    35     3     4   ar
