@<TRIPOS>MOLECULE
L3024_0_out.pdbqt
 33 35 0 0 0
SMALL
GASTEIGER

@<TRIPOS>ATOM
      1 C27         6.9710  -17.8060   -8.4220 C.ar    1  MOL1       -0.0240
      2 C28         6.4400  -16.6480   -7.8250 C.ar    1  MOL1       -0.0570
      3 C29         5.2140  -16.6970   -7.1540 C.ar    1  MOL1       -0.0610
      4 C30         4.5070  -17.9000   -7.0710 C.ar    1  MOL1       -0.0480
      5 C31         5.0250  -19.0600   -7.6570 C.ar    1  MOL1        0.0180
      6 Br32        4.0670  -20.7100   -7.5250 Br      1  MOL1       -0.0510
      7 C33         6.2480  -19.0130   -8.3340 C.ar    1  MOL1       -0.0430
      8  C6         8.2620  -17.7290   -9.2090 C.3     1  MOL1        0.0630
      9  C5         8.2980  -18.8410  -10.2730 C.3     1  MOL1        0.0510
     10  C1         7.0440  -17.0380  -13.4890 C.3     1  MOL1        0.0060
     11  N2         7.1000  -17.6060  -12.1500 N.am    1  MOL1       -0.3590
     12  C3         8.2680  -18.2740  -11.6620 C.2     1  MOL1        0.2220
     13  O4         9.2860  -18.3880  -12.3990 O.2     1  MOL1       -0.2750
     14  N7         9.4140  -17.8390   -8.3070 N.am    1  MOL1       -0.3460
     15  C8         9.9400  -19.0980   -7.8810 C.2     1  MOL1        0.2580
     16  O9         9.4090  -20.1720   -8.2700 O.2     1  MOL1       -0.2710
     17 C10        11.1360  -19.1540   -6.9800 C.3     1  MOL1        0.1670
     18 O11        12.2990  -19.5240   -7.7160 O.3     1  MOL1       -0.4800
     19 C12        13.4660  -19.9670   -7.0870 C.ar    1  MOL1        0.1660
     20 C13        14.5630  -19.0990   -6.8860 C.ar    1  MOL1        0.0120
     21 C21        15.6840  -19.5630   -6.1780 C.ar    1  MOL1       -0.0540
     22 C22        15.7370  -20.8800   -5.7200 C.ar    1  MOL1       -0.0580
     23 C23        14.6740  -21.7500   -5.9640 C.ar    1  MOL1       -0.0160
     24 C24        13.5320  -21.3010   -6.6530 C.ar    1  MOL1        0.1610
     25 C14        14.5640  -17.6810   -7.4140 C.3     1  MOL1        0.0280
     26 N15        14.1900  -16.7320   -6.3450 N.3     1  MOL1       -0.2870
     27 C16        13.1270  -15.8120   -6.7850 C.3     1  MOL1        0.0640
     28 C17        14.0410  -14.6050   -6.7100 C.3     1  MOL1        0.2720
     29 F18        13.6860  -13.7000   -5.7260 F       1  MOL1       -0.2040
     30 F19        14.2980  -14.0230   -7.9410 F       1  MOL1       -0.2040
     31 C20        15.1110  -15.5850   -6.2730 C.3     1  MOL1        0.0640
     32 O25        12.4420  -22.1440   -6.9180 O.3     1  MOL1       -0.4930
     33 C26        12.5370  -23.3940   -7.5920 C.3     1  MOL1        0.0780
@<TRIPOS>BOND
     1    10    11    1
     2    13    12    2
     3    11    12   am
     4    12     9    1
     5     9     8    1
     6     8     1    1
     7     8    14    1
     8     1     7   ar
     9     1     2   ar
    10     7     5   ar
    11    14    15   am
    12    16    15    2
    13    30    28    1
    14    15    17    1
    15     2     3   ar
    16    18    19    1
    17    18    17    1
    18     5     6    1
    19     5     4   ar
    20    33    32    1
    21    25    20    1
    22    25    26    1
    23     3     4   ar
    24    19    20   ar
    25    19    24   ar
    26    32    24    1
    27    20    21   ar
    28    27    28    1
    29    27    26    1
    30    28    31    1
    31    28    29    1
    32    24    23   ar
    33    26    31    1
    34    21    22   ar
    35    23    22   ar
