@<TRIPOS>MOLECULE
L3024_0_out.pdbqt
 33 35 0 0 0
SMALL
GASTEIGER

@<TRIPOS>ATOM
      1 C27        15.5180  -15.7720   -3.9980 C.ar    1  MOL1       -0.0240
      2 C28        14.2970  -15.5540   -3.3340 C.ar    1  MOL1       -0.0570
      3 C29        13.2210  -14.9660   -4.0080 C.ar    1  MOL1       -0.0610
      4 C30        13.3530  -14.5900   -5.3470 C.ar    1  MOL1       -0.0480
      5 C31        14.5610  -14.8040   -6.0200 C.ar    1  MOL1        0.0180
      6 Br32       14.7330  -14.3090   -7.8600 Br      1  MOL1       -0.0510
      7 C33        15.6400  -15.3870   -5.3490 C.ar    1  MOL1       -0.0430
      8  C6        16.6990  -16.3420   -3.2430 C.3     1  MOL1        0.0630
      9  C5        17.5910  -15.2020   -2.7210 C.3     1  MOL1        0.0510
     10  C1        18.5980  -14.3990    0.9550 C.3     1  MOL1        0.0060
     11  N2        18.6240  -14.5170   -0.4960 N.am    1  MOL1       -0.3590
     12  C3        17.5400  -15.1040   -1.2240 C.2     1  MOL1        0.2220
     13  O4        16.5280  -15.5410   -0.6090 O.2     1  MOL1       -0.2750
     14  N7        17.4680  -17.2440   -4.1080 N.am    1  MOL1       -0.3460
     15  C8        17.1500  -18.6310   -4.2480 C.2     1  MOL1        0.2580
     16  O9        16.1850  -19.1290   -3.6100 O.2     1  MOL1       -0.2710
     17 C10        17.9530  -19.5030   -5.1660 C.3     1  MOL1        0.1670
     18 O11        17.1930  -19.8420   -6.3240 O.3     1  MOL1       -0.4800
     19 C12        17.2830  -19.1080   -7.5100 C.ar    1  MOL1        0.1660
     20 C13        16.2090  -18.3020   -7.9530 C.ar    1  MOL1        0.0120
     21 C21        16.3710  -17.5200   -9.1090 C.ar    1  MOL1       -0.0540
     22 C22        17.5590  -17.5720   -9.8380 C.ar    1  MOL1       -0.0580
     23 C23        18.5980  -18.4060   -9.4270 C.ar    1  MOL1       -0.0160
     24 C24        18.4670  -19.1840   -8.2610 C.ar    1  MOL1        0.1610
     25 C14        14.8870  -18.2610   -7.2180 C.3     1  MOL1        0.0280
     26 N15        13.7810  -18.6330   -8.1240 N.3     1  MOL1       -0.2870
     27 C16        13.0280  -17.4500   -8.5740 C.3     1  MOL1        0.0640
     28 C17        11.7730  -17.8800   -7.8410 C.3     1  MOL1        0.2720
     29 F18        10.7240  -18.2110   -8.6810 F       1  MOL1       -0.2040
     30 F19        11.4160  -17.0330   -6.8040 F       1  MOL1       -0.2040
     31 C20        12.5850  -19.0770   -7.3880 C.3     1  MOL1        0.0640
     32 O25        19.4870  -20.0350   -7.8140 O.3     1  MOL1       -0.4930
     33 C26        20.5510  -20.5160   -8.6290 C.3     1  MOL1        0.0780
@<TRIPOS>BOND
     1    22    23   ar
     2    22    21   ar
     3    23    24   ar
     4    21    20   ar
     5    29    28    1
     6    33    32    1
     7    27    26    1
     8    27    28    1
     9    24    32    1
    10    24    19   ar
    11    26    31    1
    12    26    25    1
    13    20    19   ar
    14    20    25    1
    15     6     5    1
    16    28    31    1
    17    28    30    1
    18    19    18    1
    19    18    17    1
    20     5     7   ar
    21     5     4   ar
    22     7     1   ar
    23     4     3   ar
    24    17    15    1
    25    15    14   am
    26    15    16    2
    27    14     8    1
    28     3     2   ar
    29     1     2   ar
    30     1     8    1
    31     8     9    1
    32     9    12    1
    33    12    13    2
    34    12    11   am
    35    11    10    1
