@<TRIPOS>MOLECULE
L3024_0_out.pdbqt
 33 35 0 0 0
SMALL
GASTEIGER

@<TRIPOS>ATOM
      1 C27         8.7200  -17.7220   -8.8000 C.ar    1  MOL1       -0.0240
      2 C28         9.0240  -16.4630   -8.2510 C.ar    1  MOL1       -0.0570
      3 C29        10.1490  -16.3010   -7.4340 C.ar    1  MOL1       -0.0610
      4 C30        10.9780  -17.3910   -7.1570 C.ar    1  MOL1       -0.0480
      5 C31        10.6880  -18.6480   -7.7000 C.ar    1  MOL1        0.0180
      6 Br32       11.8360  -20.1350   -7.3380 Br      1  MOL1       -0.0510
      7 C33         9.5620  -18.8160   -8.5130 C.ar    1  MOL1       -0.0430
      8  C6         7.4630  -17.9060   -9.6230 C.3     1  MOL1        0.0630
      9  C5         6.5980  -16.6340   -9.5550 C.3     1  MOL1        0.0510
     10  C1         5.2040  -14.3690  -12.4010 C.3     1  MOL1        0.0060
     11  N2         5.4830  -14.9340  -11.0880 N.am    1  MOL1       -0.3590
     12  C3         6.3210  -16.0820  -10.9230 C.2     1  MOL1        0.2220
     13  O4         6.8370  -16.6380  -11.9310 O.2     1  MOL1       -0.2750
     14  N7         6.7090  -19.0700   -9.1460 N.am    1  MOL1       -0.3460
     15  C8         5.7750  -18.9920   -8.0670 C.2     1  MOL1        0.2580
     16  O9         5.5770  -17.8970   -7.4760 O.2     1  MOL1       -0.2710
     17 C10         5.0100  -20.2070   -7.6370 C.3     1  MOL1        0.1670
     18 O11         3.6870  -20.1780   -8.1650 O.3     1  MOL1       -0.4800
     19 C12         3.1400  -21.2620   -8.8570 C.ar    1  MOL1        0.1660
     20 C13         3.8710  -21.9290   -9.8670 C.ar    1  MOL1        0.0120
     21 C21         3.3140  -23.0630  -10.4810 C.ar    1  MOL1       -0.0540
     22 C22         2.0350  -23.5000  -10.1340 C.ar    1  MOL1       -0.0580
     23 C23         1.2960  -22.8100   -9.1730 C.ar    1  MOL1       -0.0160
     24 C24         1.8410  -21.6830   -8.5300 C.ar    1  MOL1        0.1610
     25 C14         5.2380  -21.4530  -10.3070 C.3     1  MOL1        0.0280
     26 N15         6.1530  -22.6000  -10.4780 N.3     1  MOL1       -0.2870
     27 C16         7.2960  -22.5230   -9.5510 C.3     1  MOL1        0.0640
     28 C17         8.2910  -22.3320  -10.6790 C.3     1  MOL1        0.2720
     29 F18         9.1660  -23.3930  -10.8330 F       1  MOL1       -0.2040
     30 F19         8.9070  -21.0910  -10.6730 F       1  MOL1       -0.2040
     31 C20         7.0880  -22.4030  -11.5990 C.3     1  MOL1        0.0640
     32 O25         1.1300  -20.9620   -7.5590 O.3     1  MOL1       -0.4930
     33 C26        -0.2370  -20.5850   -7.6770 C.3     1  MOL1        0.0780
@<TRIPOS>BOND
     1    10    11    1
     2    13    12    2
     3    31    28    1
     4    31    26    1
     5    11    12   am
     6    12     9    1
     7    29    28    1
     8    28    30    1
     9    28    27    1
    10    21    22   ar
    11    21    20   ar
    12    26    25    1
    13    26    27    1
    14    25    20    1
    15    22    23   ar
    16    20    19   ar
    17     8     9    1
    18     8    14    1
    19     8     1    1
    20    23    24   ar
    21    14    15   am
    22    19    24   ar
    23    19    18    1
    24     1     7   ar
    25     1     2   ar
    26    24    32    1
    27     7     5   ar
    28     2     3   ar
    29    18    17    1
    30    15    17    1
    31    15    16    2
    32     5     6    1
    33     5     4   ar
    34    33    32    1
    35     3     4   ar
