@<TRIPOS>MOLECULE
L3024_0_out.pdbqt
 33 35 0 0 0
SMALL
GASTEIGER

@<TRIPOS>ATOM
      1 C27        16.2170  -17.4040   -7.5880 C.ar    1  MOL1       -0.0240
      2 C28        16.5550  -16.7950   -8.8100 C.ar    1  MOL1       -0.0570
      3 C29        17.6430  -17.2630   -9.5560 C.ar    1  MOL1       -0.0610
      4 C30        18.4010  -18.3400   -9.0910 C.ar    1  MOL1       -0.0480
      5 C31        18.0730  -18.9570   -7.8790 C.ar    1  MOL1        0.0180
      6 Br32       19.0980  -20.4460   -7.2530 Br      1  MOL1       -0.0510
      7 C33        16.9900  -18.4890   -7.1270 C.ar    1  MOL1       -0.0430
      8  C6        15.0850  -16.8470   -6.7520 C.3     1  MOL1        0.0630
      9  C5        15.4250  -16.9680   -5.2560 C.3     1  MOL1        0.0510
     10  C1        14.2000  -13.7840   -3.3760 C.3     1  MOL1        0.0060
     11  N2        14.2240  -15.0770   -4.0440 N.am    1  MOL1       -0.3590
     12  C3        15.4320  -15.6260   -4.5820 C.2     1  MOL1        0.2220
     13  O4        16.5140  -14.9850   -4.4910 O.2     1  MOL1       -0.2750
     14  N7        13.8340  -17.5500   -7.0560 N.am    1  MOL1       -0.3460
     15  C8        12.5630  -16.8970   -7.0510 C.2     1  MOL1        0.2580
     16  O9        12.4800  -15.6720   -6.7690 O.2     1  MOL1       -0.2710
     17 C10        11.3180  -17.6570   -7.3950 C.3     1  MOL1        0.1670
     18 O11        11.5130  -18.4250   -8.5800 O.3     1  MOL1       -0.4800
     19 C12        10.9010  -19.6670   -8.7690 C.ar    1  MOL1        0.1660
     20 C13         9.6080  -19.7670   -9.3300 C.ar    1  MOL1        0.0120
     21 C21         9.0630  -21.0380   -9.5750 C.ar    1  MOL1       -0.0540
     22 C22         9.7680  -22.1900   -9.2250 C.ar    1  MOL1       -0.0580
     23 C23        11.0230  -22.0880   -8.6240 C.ar    1  MOL1       -0.0160
     24 C24        11.5980  -20.8250   -8.3880 C.ar    1  MOL1        0.1610
     25 C14         8.7920  -18.5400   -9.6740 C.3     1  MOL1        0.0280
     26 N15         8.0660  -18.0530   -8.4830 N.3     1  MOL1       -0.2870
     27 C16         6.6070  -18.1740   -8.6510 C.3     1  MOL1        0.0640
     28 C17         6.4090  -16.6710   -8.6450 C.3     1  MOL1        0.2720
     29 F18         5.7110  -16.2080   -7.5430 F       1  MOL1       -0.2040
     30 F19         5.9540  -16.1640   -9.8510 F       1  MOL1       -0.2040
     31 C20         7.9140  -16.5880   -8.4860 C.3     1  MOL1        0.0640
     32 O25        12.8560  -20.6800   -7.7860 O.3     1  MOL1       -0.4930
     33 C26        13.1570  -21.0570   -6.4460 C.3     1  MOL1        0.0780
@<TRIPOS>BOND
     1    30    28    1
     2    25    20    1
     3    25    26    1
     4    21    20   ar
     5    21    22   ar
     6     3     4   ar
     7     3     2   ar
     8    20    19   ar
     9    22    23   ar
    10     4     5   ar
    11     2     1   ar
    12    19    18    1
    13    19    24   ar
    14    27    28    1
    15    27    26    1
    16    28    31    1
    17    28    29    1
    18    23    24   ar
    19    18    17    1
    20    31    26    1
    21    24    32    1
    22     5     6    1
    23     5     7   ar
    24    32    33    1
    25     1     7   ar
    26     1     8    1
    27    17    15    1
    28    14    15   am
    29    14     8    1
    30    15    16    2
    31     8     9    1
    32     9    12    1
    33    12    13    2
    34    12    11   am
    35    11    10    1
