@<TRIPOS>MOLECULE
L3024_0_out.pdbqt
 33 35 0 0 0
SMALL
GASTEIGER

@<TRIPOS>ATOM
      1 C27        12.3050  -19.9670   -7.3770 C.ar    1  MOL1       -0.0240
      2 C28        12.0960  -20.6640   -6.1720 C.ar    1  MOL1       -0.0570
      3 C29        13.0080  -21.6360   -5.7500 C.ar    1  MOL1       -0.0610
      4 C30        14.1360  -21.9230   -6.5230 C.ar    1  MOL1       -0.0480
      5 C31        14.3580  -21.2350   -7.7210 C.ar    1  MOL1        0.0180
      6 Br32       15.9140  -21.6130   -8.7680 Br      1  MOL1       -0.0510
      7 C33        13.4450  -20.2660   -8.1500 C.ar    1  MOL1       -0.0430
      8  C6        11.2770  -18.9690   -7.8630 C.3     1  MOL1        0.0630
      9  C5        11.4230  -17.6440   -7.0940 C.3     1  MOL1        0.0510
     10  C1        14.5930  -15.3860   -6.9350 C.3     1  MOL1        0.0060
     11  N2        13.3870  -16.1110   -6.5630 N.am    1  MOL1       -0.3590
     12  C3        12.6580  -16.8990   -7.5110 C.2     1  MOL1        0.2220
     13  O4        13.0530  -16.9760   -8.7060 O.2     1  MOL1       -0.2750
     14  N7         9.9240  -19.5130   -7.7010 N.am    1  MOL1       -0.3460
     15  C8         9.2690  -20.2630   -8.7260 C.2     1  MOL1        0.2580
     16  O9         9.8450  -20.4730   -9.8260 O.2     1  MOL1       -0.2710
     17 C10         7.8950  -20.8190   -8.4980 C.3     1  MOL1        0.1670
     18 O11         6.9170  -20.0210   -9.1610 O.3     1  MOL1       -0.4800
     19 C12         6.2000  -19.0240   -8.4950 C.ar    1  MOL1        0.1660
     20 C13         5.0300  -19.3300   -7.7620 C.ar    1  MOL1        0.0120
     21 C21         4.3850  -18.3100   -7.0430 C.ar    1  MOL1       -0.0540
     22 C22         4.8630  -17.0000   -7.0900 C.ar    1  MOL1       -0.0580
     23 C23         5.9880  -16.6910   -7.8540 C.ar    1  MOL1       -0.0160
     24 C24         6.6630  -17.7000   -8.5660 C.ar    1  MOL1        0.1610
     25 C14         4.4520  -20.7270   -7.7320 C.3     1  MOL1        0.0280
     26 N15         3.2710  -20.8160   -8.6150 N.3     1  MOL1       -0.2870
     27 C16         2.0180  -20.8570   -7.8410 C.3     1  MOL1        0.0640
     28 C17         1.7060  -22.2730   -8.2820 C.3     1  MOL1        0.2720
     29 F18         0.5880  -22.3690   -9.0930 F       1  MOL1       -0.2040
     30 F19         1.7320  -23.1970   -7.2500 F       1  MOL1       -0.2040
     31 C20         3.0080  -22.1970   -9.0540 C.3     1  MOL1        0.0640
     32 O25         7.7960  -17.4300   -9.3470 O.3     1  MOL1       -0.4930
     33 C26         7.7890  -17.3170  -10.7660 C.3     1  MOL1        0.0780
@<TRIPOS>BOND
     1    33    32    1
     2    16    15    2
     3    32    24    1
     4    18    17    1
     5    18    19    1
     6    29    28    1
     7    31    26    1
     8    31    28    1
     9     6     5    1
    10    15    17    1
    11    15    14   am
    12    13    12    2
    13    26    27    1
    14    26    25    1
    15    24    19   ar
    16    24    23   ar
    17    19    20   ar
    18    28    27    1
    19    28    30    1
    20     7     5   ar
    21     7     1   ar
    22     8    14    1
    23     8     1    1
    24     8     9    1
    25    23    22   ar
    26    20    25    1
    27    20    21   ar
    28     5     4   ar
    29    12     9    1
    30    12    11   am
    31     1     2   ar
    32    22    21   ar
    33    10    11    1
    34     4     3   ar
    35     2     3   ar
