@<TRIPOS>MOLECULE
L3024_0_out.pdbqt
 33 35 0 0 0
SMALL
GASTEIGER

@<TRIPOS>ATOM
      1 C27         8.0800  -21.9090   -9.7610 C.ar    1  MOL1       -0.0240
      2 C28         7.4590  -22.0480  -11.0160 C.ar    1  MOL1       -0.0570
      3 C29         6.0690  -21.9430  -11.1330 C.ar    1  MOL1       -0.0610
      4 C30         5.2860  -21.7000  -10.0010 C.ar    1  MOL1       -0.0480
      5 C31         5.8910  -21.5570   -8.7470 C.ar    1  MOL1        0.0180
      6 Br32        4.8210  -21.2030   -7.2020 Br      1  MOL1       -0.0510
      7 C33         7.2800  -21.6660   -8.6260 C.ar    1  MOL1       -0.0430
      8  C6         9.5760  -22.0960   -9.6320 C.3     1  MOL1        0.0630
      9  C5         9.9000  -23.5730   -9.3440 C.3     1  MOL1        0.0510
     10  C1        12.4550  -25.7090  -11.3660 C.3     1  MOL1        0.0060
     11  N2        11.7460  -25.0650  -10.2690 N.am    1  MOL1       -0.3590
     12  C3        10.6170  -24.2140  -10.4970 C.2     1  MOL1        0.2220
     13  O4        10.2130  -24.0010  -11.6730 O.2     1  MOL1       -0.2750
     14  N7        10.1060  -21.2340   -8.5700 N.am    1  MOL1       -0.3460
     15  C8        10.6270  -19.9280   -8.8280 C.2     1  MOL1        0.2580
     16  O9        10.6540  -19.4750  -10.0030 O.2     1  MOL1       -0.2710
     17 C10        11.1320  -19.0780   -7.7010 C.3     1  MOL1        0.1670
     18 O11        12.1610  -19.7570   -6.9860 O.3     1  MOL1       -0.4800
     19 C12        13.3630  -20.1320   -7.5930 C.ar    1  MOL1        0.1660
     20 C13        14.2010  -19.1740   -8.2090 C.ar    1  MOL1        0.0120
     21 C21        15.4360  -19.5840   -8.7380 C.ar    1  MOL1       -0.0540
     22 C22        15.8130  -20.9260   -8.7000 C.ar    1  MOL1       -0.0580
     23 C23        14.9620  -21.8770   -8.1370 C.ar    1  MOL1       -0.0160
     24 C24        13.7280  -21.4880   -7.5830 C.ar    1  MOL1        0.1610
     25 C14        13.8020  -17.7190   -8.3160 C.3     1  MOL1        0.0280
     26 N15        13.9860  -17.0370   -7.0190 N.3     1  MOL1       -0.2870
     27 C16        13.0760  -15.8880   -6.8770 C.3     1  MOL1        0.0640
     28 C17        14.2170  -14.8900   -6.8820 C.3     1  MOL1        0.2720
     29 F18        14.3840  -14.2310   -5.6770 F       1  MOL1       -0.2040
     30 F19        14.2200  -14.0520   -7.9850 F       1  MOL1       -0.2040
     31 C20        15.1200  -16.0970   -7.0410 C.3     1  MOL1        0.0640
     32 O25        12.8440  -22.4130   -7.0090 O.3     1  MOL1       -0.4930
     33 C26        12.8990  -23.8200   -7.2210 C.3     1  MOL1        0.0780
@<TRIPOS>BOND
     1    13    12    2
     2    10    11    1
     3     3     2   ar
     4     3     4   ar
     5     2     1   ar
     6    12    11   am
     7    12     9    1
     8    16    15    2
     9     4     5   ar
    10     1     8    1
    11     1     7   ar
    12     8     9    1
    13     8    14    1
    14    15    14   am
    15    15    17    1
    16     5     7   ar
    17     5     6    1
    18    21    22   ar
    19    21    20   ar
    20    22    23   ar
    21    25    20    1
    22    25    26    1
    23    20    19   ar
    24    23    24   ar
    25    30    28    1
    26    17    18    1
    27    19    24   ar
    28    19    18    1
    29    24    32    1
    30    33    32    1
    31    31    26    1
    32    31    28    1
    33    26    27    1
    34    28    27    1
    35    28    29    1
