@<TRIPOS>MOLECULE
L3024_0_out.pdbqt
 33 35 0 0 0
SMALL
GASTEIGER

@<TRIPOS>ATOM
      1 C27         7.2170  -17.0310  -10.3320 C.ar    1  MOL1       -0.0240
      2 C28         7.5950  -17.8260  -11.4300 C.ar    1  MOL1       -0.0570
      3 C29         7.1900  -17.4830  -12.7240 C.ar    1  MOL1       -0.0610
      4 C30         6.4050  -16.3470  -12.9360 C.ar    1  MOL1       -0.0480
      5 C31         6.0240  -15.5460  -11.8530 C.ar    1  MOL1        0.0180
      6 Br32        4.9680  -13.9780  -12.1460 Br      1  MOL1       -0.0510
      7 C33         6.4230  -15.8880  -10.5570 C.ar    1  MOL1       -0.0430
      8  C6         7.5970  -17.4490   -8.9280 C.3     1  MOL1        0.0630
      9  C5         6.6920  -16.7420   -7.9040 C.3     1  MOL1        0.0510
     10  C1         4.3900  -19.8560   -7.4800 C.3     1  MOL1        0.0060
     11  N2         5.5020  -18.9930   -7.8530 N.am    1  MOL1       -0.3590
     12  C3         5.5250  -17.6030   -7.5140 C.2     1  MOL1        0.2220
     13  O4         4.5620  -17.0900   -6.8800 O.2     1  MOL1       -0.2750
     14  N7         9.0080  -17.1390   -8.6710 N.am    1  MOL1       -0.3460
     15  C8         9.9310  -18.1110   -8.1770 C.2     1  MOL1        0.2580
     16  O9         9.5470  -19.2860   -7.9340 O.2     1  MOL1       -0.2710
     17 C10        11.3690  -17.7480   -7.9560 C.3     1  MOL1        0.1670
     18 O11        12.2080  -18.8800   -8.1700 O.3     1  MOL1       -0.4800
     19 C12        13.0020  -19.4180   -7.1530 C.ar    1  MOL1        0.1660
     20 C13        14.1370  -18.7290   -6.6700 C.ar    1  MOL1        0.0120
     21 C21        14.8600  -19.2690   -5.5930 C.ar    1  MOL1       -0.0540
     22 C22        14.4920  -20.4940   -5.0370 C.ar    1  MOL1       -0.0580
     23 C23        13.4020  -21.1970   -5.5490 C.ar    1  MOL1       -0.0160
     24 C24        12.6500  -20.6670   -6.6140 C.ar    1  MOL1        0.1610
     25 C14        14.5970  -17.4240   -7.2820 C.3     1  MOL1        0.0280
     26 N15        15.6010  -16.7740   -6.4150 N.3     1  MOL1       -0.2870
     27 C16        15.4710  -15.3070   -6.4410 C.3     1  MOL1        0.0640
     28 C17        16.8160  -15.1260   -7.1160 C.3     1  MOL1        0.2720
     29 F18        17.7580  -14.4990   -6.3190 F       1  MOL1       -0.2040
     30 F19        16.7320  -14.6090   -8.3980 F       1  MOL1       -0.2040
     31 C20        16.9080  -16.6390   -7.0820 C.3     1  MOL1        0.0640
     32 O25        11.5480  -21.3420   -7.1580 O.3     1  MOL1       -0.4930
     33 C26        11.6380  -22.3830   -8.1240 C.3     1  MOL1        0.0780
@<TRIPOS>BOND
     1     4     3   ar
     2     4     5   ar
     3     3     2   ar
     4     6     5    1
     5     5     7   ar
     6     2     1   ar
     7     7     1   ar
     8     1     8    1
     9     8    14    1
    10     8     9    1
    11    14    15   am
    12    30    28    1
    13    15    17    1
    14    15    16    2
    15    18    17    1
    16    18    19    1
    17    33    32    1
    18     9    12    1
    19    11    12   am
    20    11    10    1
    21    12    13    2
    22    25    20    1
    23    25    26    1
    24    32    24    1
    25    19    20   ar
    26    19    24   ar
    27    28    31    1
    28    28    27    1
    29    28    29    1
    30    31    26    1
    31    20    21   ar
    32    24    23   ar
    33    27    26    1
    34    21    22   ar
    35    23    22   ar
