@<TRIPOS>MOLECULE
L3024_0_out.pdbqt
 33 35 0 0 0
SMALL
GASTEIGER

@<TRIPOS>ATOM
      1 C27         5.1160  -15.1280  -10.2380 C.ar    1  MOL1       -0.0240
      2 C28         3.9030  -14.7900   -9.6120 C.ar    1  MOL1       -0.0570
      3 C29         3.0030  -13.9190  -10.2360 C.ar    1  MOL1       -0.0610
      4 C30         3.3060  -13.3780  -11.4890 C.ar    1  MOL1       -0.0480
      5 C31         4.5080  -13.7090  -12.1240 C.ar    1  MOL1        0.0180
      6 Br32        4.9120  -12.9850  -13.8480 Br      1  MOL1       -0.0510
      7 C33         5.4120  -14.5750  -11.5000 C.ar    1  MOL1       -0.0430
      8  C6         6.1150  -16.0130   -9.5240 C.3     1  MOL1        0.0630
      9  C5         7.2570  -16.3980  -10.4820 C.3     1  MOL1        0.0510
     10  C1         9.9390  -16.8410   -7.6920 C.3     1  MOL1        0.0060
     11  N2         8.7870  -16.3680   -8.4460 N.am    1  MOL1       -0.3590
     12  C3         8.4580  -16.9000   -9.7340 C.2     1  MOL1        0.2220
     13  O4         9.1760  -17.8000  -10.2480 O.2     1  MOL1       -0.2750
     14  N7         5.4510  -17.2120   -9.0030 N.am    1  MOL1       -0.3460
     15  C8         5.1570  -17.3870   -7.6150 C.2     1  MOL1        0.2580
     16  O9         5.4780  -16.4990   -6.7810 O.2     1  MOL1       -0.2710
     17 C10         4.4520  -18.6220   -7.1390 C.3     1  MOL1        0.1670
     18 O11         5.2140  -19.7850   -7.4550 O.3     1  MOL1       -0.4800
     19 C12         4.8730  -20.6300   -8.5140 C.ar    1  MOL1        0.1660
     20 C13         5.8210  -20.9880   -9.5000 C.ar    1  MOL1        0.0120
     21 C21         5.4560  -21.9030  -10.5020 C.ar    1  MOL1       -0.0540
     22 C22         4.1600  -22.4160  -10.5540 C.ar    1  MOL1       -0.0580
     23 C23         3.2120  -22.0220   -9.6110 C.ar    1  MOL1       -0.0160
     24 C24         3.5590  -21.1230   -8.5860 C.ar    1  MOL1        0.1610
     25 C14         7.2200  -20.4110   -9.5060 C.3     1  MOL1        0.0280
     26 N15         8.1270  -21.2490   -8.6960 N.3     1  MOL1       -0.2870
     27 C16         9.0930  -20.4310   -7.9430 C.3     1  MOL1        0.0640
     28 C17        10.2720  -20.9690   -8.7290 C.3     1  MOL1        0.2720
     29 F18        11.1390  -21.7380   -7.9730 F       1  MOL1       -0.2040
     30 F19        10.9040  -20.0140   -9.5100 F       1  MOL1       -0.2040
     31 C20         9.2460  -21.7850   -9.4900 C.3     1  MOL1        0.0640
     32 O25         2.6350  -20.7010   -7.6190 O.3     1  MOL1       -0.4930
     33 C26         1.2570  -21.0580   -7.6120 C.3     1  MOL1        0.0780
@<TRIPOS>BOND
     1     6     5    1
     2     5     7   ar
     3     5     4   ar
     4     7     1   ar
     5     4     3   ar
     6    22    21   ar
     7    22    23   ar
     8    21    20   ar
     9     9    12    1
    10     9     8    1
    11    13    12    2
    12     1     2   ar
    13     1     8    1
    14     3     2   ar
    15    12    11   am
    16    23    24   ar
    17     8    14    1
    18    30    28    1
    19    25    20    1
    20    25    26    1
    21    20    19   ar
    22    31    28    1
    23    31    26    1
    24    14    15   am
    25    28    29    1
    26    28    27    1
    27    26    27    1
    28    24    19   ar
    29    24    32    1
    30    19    18    1
    31    11    10    1
    32    32    33    1
    33    15    17    1
    34    15    16    2
    35    18    17    1
