@<TRIPOS>MOLECULE
L3024_0_out.pdbqt
 33 35 0 0 0
SMALL
GASTEIGER

@<TRIPOS>ATOM
      1 C27        17.6620  -17.7490   -8.6950 C.ar    1  MOL1       -0.0240
      2 C28        17.9230  -17.2930  -10.0000 C.ar    1  MOL1       -0.0570
      3 C29        18.9440  -17.8720  -10.7610 C.ar    1  MOL1       -0.0610
      4 C30        19.7140  -18.9090  -10.2270 C.ar    1  MOL1       -0.0480
      5 C31        19.4630  -19.3740   -8.9310 C.ar    1  MOL1        0.0180
      6 Br32       20.5040  -20.8080   -8.2100 Br      1  MOL1       -0.0510
      7 C33        18.4460  -18.7940   -8.1660 C.ar    1  MOL1       -0.0430
      8  C6        16.6040  -17.0690   -7.8530 C.3     1  MOL1        0.0630
      9  C5        16.8070  -17.4190   -6.3680 C.3     1  MOL1        0.0510
     10  C1        19.3710  -15.3270   -4.3140 C.3     1  MOL1        0.0060
     11  N2        18.7360  -16.4160   -5.0410 N.am    1  MOL1       -0.3590
     12  C3        17.4310  -16.2800   -5.6140 C.2     1  MOL1        0.2220
     13  O4        16.7950  -15.1980   -5.4900 O.2     1  MOL1       -0.2750
     14  N7        15.2650  -17.4680   -8.2990 N.am    1  MOL1       -0.3460
     15  C8        14.1270  -16.6120   -8.1780 C.2     1  MOL1        0.2580
     16  O9        14.2440  -15.4680   -7.6620 O.2     1  MOL1       -0.2710
     17 C10        12.7850  -17.0600   -8.6750 C.3     1  MOL1        0.1670
     18 O11        12.1550  -17.9050   -7.7150 O.3     1  MOL1       -0.4800
     19 C12        11.6170  -19.1480   -8.0620 C.ar    1  MOL1        0.1660
     20 C13        12.2650  -20.3510   -7.7000 C.ar    1  MOL1        0.0120
     21 C21        11.6500  -21.5780   -8.0000 C.ar    1  MOL1       -0.0540
     22 C22        10.4370  -21.6120   -8.6890 C.ar    1  MOL1       -0.0580
     23 C23         9.8250  -20.4250   -9.0900 C.ar    1  MOL1       -0.0160
     24 C24        10.4130  -19.1830   -8.7830 C.ar    1  MOL1        0.1610
     25 C14        13.6060  -20.3540   -6.9990 C.3     1  MOL1        0.0280
     26 N15        14.4150  -21.5100   -7.4380 N.3     1  MOL1       -0.2870
     27 C16        15.1180  -22.1400   -6.3080 C.3     1  MOL1        0.0640
     28 C17        16.4810  -21.7480   -6.8420 C.3     1  MOL1        0.2720
     29 F18        17.2540  -22.8250   -7.2370 F       1  MOL1       -0.2040
     30 F19        17.1530  -20.8380   -6.0420 F       1  MOL1       -0.2040
     31 C20        15.7200  -21.0990   -7.9830 C.3     1  MOL1        0.0640
     32 O25         9.8300  -17.9670   -9.1680 O.3     1  MOL1       -0.4930
     33 C26         8.6380  -17.8530   -9.9390 C.3     1  MOL1        0.0780
@<TRIPOS>BOND
     1     3     4   ar
     2     3     2   ar
     3     4     5   ar
     4     2     1   ar
     5    33    32    1
     6    32    24    1
     7    23    24   ar
     8    23    22   ar
     9     5     6    1
    10     5     7   ar
    11    24    19   ar
    12     1     7   ar
    13     1     8    1
    14    22    21   ar
    15    17    15    1
    16    17    18    1
    17    14    15   am
    18    14     8    1
    19    15    16    2
    20    19    18    1
    21    19    20   ar
    22    21    20   ar
    23    31    26    1
    24    31    28    1
    25     8     9    1
    26    20    25    1
    27    26    25    1
    28    26    27    1
    29    29    28    1
    30    28    27    1
    31    28    30    1
    32     9    12    1
    33    12    13    2
    34    12    11   am
    35    11    10    1
