@<TRIPOS>MOLECULE
L3024_0_out.pdbqt
 33 35 0 0 0
SMALL
GASTEIGER

@<TRIPOS>ATOM
      1 C27         7.9300  -19.9720  -10.2840 C.ar    1  MOL1       -0.0240
      2 C28         8.8430  -21.0190  -10.5080 C.ar    1  MOL1       -0.0570
      3 C29         8.4040  -22.3470  -10.5330 C.ar    1  MOL1       -0.0610
      4 C30         7.0530  -22.6430  -10.3350 C.ar    1  MOL1       -0.0480
      5 C31         6.1340  -21.6110  -10.1140 C.ar    1  MOL1        0.0180
      6 Br32        4.2810  -22.0160   -9.8640 Br      1  MOL1       -0.0510
      7 C33         6.5700  -20.2820  -10.0830 C.ar    1  MOL1       -0.0430
      8  C6         8.4240  -18.5450  -10.1850 C.3     1  MOL1        0.0630
      9  C5         7.9400  -17.7350  -11.4020 C.3     1  MOL1        0.0510
     10  C1         5.3510  -14.8300  -11.5960 C.3     1  MOL1        0.0060
     11  N2         6.2500  -15.9140  -11.9660 N.am    1  MOL1       -0.3590
     12  C3         7.0300  -16.6140  -10.9900 C.2     1  MOL1        0.2220
     13  O4         6.9550  -16.2930   -9.7720 O.2     1  MOL1       -0.2750
     14  N7         9.8880  -18.5180  -10.0970 N.am    1  MOL1       -0.3460
     15  C8        10.5850  -17.7550   -9.1100 C.2     1  MOL1        0.2580
     16  O9         9.9450  -17.0590   -8.2760 O.2     1  MOL1       -0.2710
     17 C10        12.0820  -17.7840   -9.0470 C.3     1  MOL1        0.1670
     18 O11        12.5530  -19.1270   -8.9750 O.3     1  MOL1       -0.4800
     19 C12        13.1000  -19.6600   -7.8050 C.ar    1  MOL1        0.1660
     20 C13        14.2290  -19.0700   -7.1910 C.ar    1  MOL1        0.0120
     21 C21        14.6970  -19.5910   -5.9740 C.ar    1  MOL1       -0.0540
     22 C22        14.0880  -20.7060   -5.3990 C.ar    1  MOL1       -0.0580
     23 C23        13.0050  -21.3170   -6.0320 C.ar    1  MOL1       -0.0160
     24 C24        12.5060  -20.8010   -7.2430 C.ar    1  MOL1        0.1610
     25 C14        14.9480  -17.8930   -7.8120 C.3     1  MOL1        0.0280
     26 N15        15.7570  -17.1890   -6.7950 N.3     1  MOL1       -0.2870
     27 C16        15.4350  -15.7520   -6.7470 C.3     1  MOL1        0.0640
     28 C17        16.8090  -15.3530   -7.2470 C.3     1  MOL1        0.2720
     29 F18        17.5660  -14.6740   -6.3080 F       1  MOL1       -0.2040
     30 F19        16.7950  -14.7540   -8.4960 F       1  MOL1       -0.2040
     31 C20        17.0980  -16.8400   -7.2960 C.3     1  MOL1        0.0640
     32 O25        11.4210  -21.3870   -7.9110 O.3     1  MOL1       -0.4930
     33 C26        11.3400  -22.7640   -8.2640 C.3     1  MOL1        0.0780
@<TRIPOS>BOND
     1    11    10    1
     2    11    12   am
     3     9    12    1
     4     9     8    1
     5    12    13    2
     6     3     2   ar
     7     3     4   ar
     8     2     1   ar
     9     4     5   ar
    10     1     8    1
    11     1     7   ar
    12     8    14    1
    13     5     7   ar
    14     5     6    1
    15    14    15   am
    16    15    17    1
    17    15    16    2
    18    17    18    1
    19    18    19    1
    20    30    28    1
    21    33    32    1
    22    32    24    1
    23    25    20    1
    24    25    26    1
    25    19    24   ar
    26    19    20   ar
    27    31    28    1
    28    31    26    1
    29    28    27    1
    30    28    29    1
    31    24    23   ar
    32    20    21   ar
    33    26    27    1
    34    23    22   ar
    35    21    22   ar
