@<TRIPOS>MOLECULE
L3024_0_out.pdbqt
 33 35 0 0 0
SMALL
GASTEIGER

@<TRIPOS>ATOM
      1 C27         9.6450  -18.8020   -8.5760 C.ar    1  MOL1       -0.0240
      2 C28         9.3500  -17.8970   -9.6130 C.ar    1  MOL1       -0.0570
      3 C29         8.0920  -17.9080  -10.2250 C.ar    1  MOL1       -0.0610
      4 C30         7.1180  -18.8200   -9.8090 C.ar    1  MOL1       -0.0480
      5 C31         7.3970  -19.7230   -8.7770 C.ar    1  MOL1        0.0180
      6 Br32        6.0550  -20.9560   -8.1940 Br      1  MOL1       -0.0510
      7 C33         8.6550  -19.7180   -8.1660 C.ar    1  MOL1       -0.0430
      8  C6        11.0310  -18.8330   -7.9690 C.3     1  MOL1        0.0630
      9  C5        11.1740  -20.0540   -7.0440 C.3     1  MOL1        0.0510
     10  C1        14.5000  -21.8520   -7.9810 C.3     1  MOL1        0.0060
     11  N2        13.5460  -20.8870   -7.4540 N.am    1  MOL1       -0.3590
     12  C3        12.1330  -21.0620   -7.6080 C.2     1  MOL1        0.2220
     13  O4        11.6840  -22.0710   -8.2170 O.2     1  MOL1       -0.2750
     14  N7        11.2900  -17.5920   -7.2300 N.am    1  MOL1       -0.3460
     15  C8        12.5750  -16.9670   -7.2030 C.2     1  MOL1        0.2580
     16  O9        13.5450  -17.4820   -7.8190 O.2     1  MOL1       -0.2710
     17 C10        12.7780  -15.6850   -6.4530 C.3     1  MOL1        0.1670
     18 O11        13.9960  -15.0610   -6.8530 O.3     1  MOL1       -0.4800
     19 C12        15.1790  -15.2090   -6.1240 C.ar    1  MOL1        0.1660
     20 C13        16.3880  -15.5750   -6.7580 C.ar    1  MOL1        0.0120
     21 C21        17.5690  -15.6350   -5.9990 C.ar    1  MOL1       -0.0540
     22 C22        17.5430  -15.3830   -4.6280 C.ar    1  MOL1       -0.0580
     23 C23        16.3400  -15.0710   -3.9950 C.ar    1  MOL1       -0.0160
     24 C24        15.1480  -14.9850   -4.7370 C.ar    1  MOL1        0.1610
     25 C14        16.4460  -15.9070   -8.2330 C.3     1  MOL1        0.0280
     26 N15        17.4070  -17.0020   -8.4780 N.3     1  MOL1       -0.2870
     27 C16        17.6300  -17.2150   -9.9180 C.3     1  MOL1        0.0640
     28 C17        16.9910  -18.5890   -9.8890 C.3     1  MOL1        0.2720
     29 F18        17.8800  -19.6200  -10.1380 F       1  MOL1       -0.2040
     30 F19        15.8150  -18.6730  -10.6170 F       1  MOL1       -0.2040
     31 C20        16.7680  -18.3280   -8.4120 C.3     1  MOL1        0.0640
     32 O25        13.9180  -14.6750   -4.1390 O.3     1  MOL1       -0.4930
     33 C26        13.7500  -13.7400   -3.0790 C.3     1  MOL1        0.0780
@<TRIPOS>BOND
     1    30    28    1
     2     3     4   ar
     3     3     2   ar
     4    29    28    1
     5    27    28    1
     6    27    26    1
     7    28    31    1
     8     4     5   ar
     9     2     1   ar
    10     5     6    1
    11     5     7   ar
    12     1     7   ar
    13     1     8    1
    14    26    31    1
    15    26    25    1
    16    25    20    1
    17    13    12    2
    18    10    11    1
    19     8    14    1
    20     8     9    1
    21    16    15    2
    22    12    11   am
    23    12     9    1
    24    14    15   am
    25    15    17    1
    26    18    17    1
    27    18    19    1
    28    20    19   ar
    29    20    21   ar
    30    19    24   ar
    31    21    22   ar
    32    24    32    1
    33    24    23   ar
    34    22    23   ar
    35    32    33    1
