@<TRIPOS>MOLECULE
L3024_0_out.pdbqt
 33 35 0 0 0
SMALL
GASTEIGER

@<TRIPOS>ATOM
      1 C27         9.7880  -18.0790   -9.0750 C.ar    1  MOL1       -0.0240
      2 C28         9.3500  -17.0950   -8.1710 C.ar    1  MOL1       -0.0570
      3 C29         8.2710  -16.2660   -8.4960 C.ar    1  MOL1       -0.0610
      4 C30         7.6190  -16.4110   -9.7240 C.ar    1  MOL1       -0.0480
      5 C31         8.0430  -17.3890  -10.6310 C.ar    1  MOL1        0.0180
      6 Br32        7.1360  -17.6020  -12.3020 Br      1  MOL1       -0.0510
      7 C33         9.1250  -18.2160  -10.3120 C.ar    1  MOL1       -0.0430
      8  C6        11.0020  -18.9230   -8.7480 C.3     1  MOL1        0.0630
      9  C5        10.6030  -20.0810   -7.8160 C.3     1  MOL1        0.0510
     10  C1         9.6610  -22.9910  -10.2280 C.3     1  MOL1        0.0060
     11  N2         9.6470  -21.7240   -9.5100 N.am    1  MOL1       -0.3590
     12  C3        10.6390  -21.4010   -8.5310 C.2     1  MOL1        0.2220
     13  O4        11.5560  -22.2240   -8.2630 O.2     1  MOL1       -0.2750
     14  N7        12.0430  -18.0960   -8.1270 N.am    1  MOL1       -0.3460
     15  C8        13.4070  -18.1310   -8.5510 C.2     1  MOL1        0.2580
     16  O9        13.7630  -18.9000   -9.4840 O.2     1  MOL1       -0.2710
     17 C10        14.4260  -17.2460   -7.9000 C.3     1  MOL1        0.1670
     18 O11        14.7330  -17.7170   -6.5900 O.3     1  MOL1       -0.4800
     19 C12        15.9910  -17.5320   -6.0110 C.ar    1  MOL1        0.1660
     20 C13        17.0500  -18.4350   -6.2580 C.ar    1  MOL1        0.0120
     21 C21        18.3200  -18.1670   -5.7200 C.ar    1  MOL1       -0.0540
     22 C22        18.5240  -17.0500   -4.9100 C.ar    1  MOL1       -0.0580
     23 C23        17.4650  -16.1870   -4.6260 C.ar    1  MOL1       -0.0160
     24 C24        16.1890  -16.4240   -5.1700 C.ar    1  MOL1        0.1610
     25 C14        16.8530  -19.6850   -7.0880 C.3     1  MOL1        0.0280
     26 N15        16.6790  -20.8620   -6.2120 N.3     1  MOL1       -0.2870
     27 C16        16.8390  -22.1210   -6.9600 C.3     1  MOL1        0.0640
     28 C17        15.3870  -22.5090   -6.7600 C.3     1  MOL1        0.2720
     29 F18        15.2150  -23.6240   -5.9580 F       1  MOL1       -0.2040
     30 F19        14.6520  -22.5430   -7.9340 F       1  MOL1       -0.2040
     31 C20        15.2600  -21.1980   -6.0090 C.3     1  MOL1        0.0640
     32 O25        15.0990  -15.5820   -4.9080 O.3     1  MOL1       -0.4930
     33 C26        14.5570  -15.3440   -3.6130 C.3     1  MOL1        0.0780
@<TRIPOS>BOND
     1     6     5    1
     2     5     7   ar
     3     5     4   ar
     4     7     1   ar
     5    10    11    1
     6     4     3   ar
     7    11    12   am
     8    16    15    2
     9     1     8    1
    10     1     2   ar
    11     8    14    1
    12     8     9    1
    13    15    14   am
    14    15    17    1
    15    12    13    2
    16    12     9    1
    17     3     2   ar
    18    30    28    1
    19    17    18    1
    20    25    20    1
    21    25    26    1
    22    27    28    1
    23    27    26    1
    24    28    31    1
    25    28    29    1
    26    18    19    1
    27    20    19   ar
    28    20    21   ar
    29    26    31    1
    30    19    24   ar
    31    21    22   ar
    32    24    32    1
    33    24    23   ar
    34    22    23   ar
    35    32    33    1
