@<TRIPOS>MOLECULE
L3024_0_out.pdbqt
 33 35 0 0 0
SMALL
GASTEIGER

@<TRIPOS>ATOM
      1 C27         6.5730  -19.1270   -8.8140 C.ar    1  MOL1       -0.0240
      2 C28         5.7220  -20.2010   -8.4970 C.ar    1  MOL1       -0.0570
      3 C29         4.6190  -20.0050   -7.6580 C.ar    1  MOL1       -0.0610
      4 C30         4.3560  -18.7390   -7.1290 C.ar    1  MOL1       -0.0480
      5 C31         5.1930  -17.6610   -7.4400 C.ar    1  MOL1        0.0180
      6 Br32        4.8200  -15.9230   -6.7330 Br      1  MOL1       -0.0510
      7 C33         6.3000  -17.8540   -8.2740 C.ar    1  MOL1       -0.0430
      8  C6         7.8040  -19.3620   -9.6630 C.3     1  MOL1        0.0630
      9  C5         7.5430  -20.4980  -10.6680 C.3     1  MOL1        0.0510
     10  C1         9.0950  -23.8940   -9.5600 C.3     1  MOL1        0.0060
     11  N2         8.1710  -22.7840   -9.7360 N.am    1  MOL1       -0.3590
     12  C3         8.5230  -21.6230  -10.4960 C.2     1  MOL1        0.2220
     13  O4         9.6620  -21.5380  -11.0300 O.2     1  MOL1       -0.2750
     14  N7         8.9550  -19.6810   -8.8110 N.am    1  MOL1       -0.3460
     15  C8         9.8970  -18.6930   -8.3900 C.2     1  MOL1        0.2580
     16  O9         9.7680  -17.4950   -8.7550 O.2     1  MOL1       -0.2710
     17 C10        11.0420  -19.0690   -7.4970 C.3     1  MOL1        0.1670
     18 O11        12.0740  -19.7030   -8.2490 O.3     1  MOL1       -0.4800
     19 C12        13.2630  -20.1370   -7.6570 C.ar    1  MOL1        0.1660
     20 C13        14.3270  -19.2390   -7.4100 C.ar    1  MOL1        0.0120
     21 C21        15.4720  -19.7010   -6.7410 C.ar    1  MOL1       -0.0540
     22 C22        15.5820  -21.0400   -6.3670 C.ar    1  MOL1       -0.0580
     23 C23        14.5520  -21.9360   -6.6570 C.ar    1  MOL1       -0.0160
     24 C24        13.3870  -21.4920   -7.3080 C.ar    1  MOL1        0.1610
     25 C14        14.2660  -17.7920   -7.8470 C.3     1  MOL1        0.0280
     26 N15        14.0160  -16.9120   -6.6870 N.3     1  MOL1       -0.2870
     27 C16        13.0000  -15.8900   -6.9920 C.3     1  MOL1        0.0640
     28 C17        14.0000  -14.7570   -6.8740 C.3     1  MOL1        0.2720
     29 F18        13.7620  -13.9140   -5.8010 F       1  MOL1       -0.2040
     30 F19        14.2350  -14.0930   -8.0670 F       1  MOL1       -0.2040
     31 C20        15.0190  -15.8400   -6.5770 C.3     1  MOL1        0.0640
     32 O25        12.3300  -22.3590   -7.6190 O.3     1  MOL1       -0.4930
     33 C26        12.4680  -23.7640   -7.8020 C.3     1  MOL1        0.0780
@<TRIPOS>BOND
     1    13    12    2
     2     9    12    1
     3     9     8    1
     4    12    11   am
     5    11    10    1
     6     8     1    1
     7     8    14    1
     8     1     2   ar
     9     1     7   ar
    10    14    15   am
    11    16    15    2
    12     2     3   ar
    13    15    17    1
    14     7     5   ar
    15    18    19    1
    16    18    17    1
    17    30    28    1
    18    25    20    1
    19    25    26    1
    20    33    32    1
    21     3     4   ar
    22    19    20   ar
    23    19    24   ar
    24    32    24    1
    25     5     4   ar
    26     5     6    1
    27    20    21   ar
    28    24    23   ar
    29    27    28    1
    30    27    26    1
    31    28    31    1
    32    28    29    1
    33    21    22   ar
    34    26    31    1
    35    23    22   ar
