@<TRIPOS>MOLECULE
L3024_0_out.pdbqt
 33 35 0 0 0
SMALL
GASTEIGER

@<TRIPOS>ATOM
      1 C27        15.2850  -19.6580   -5.0690 C.ar    1  MOL1       -0.0240
      2 C28        14.8240  -20.2550   -3.8810 C.ar    1  MOL1       -0.0570
      3 C29        15.1810  -19.7240   -2.6370 C.ar    1  MOL1       -0.0610
      4 C30        16.0000  -18.5940   -2.5660 C.ar    1  MOL1       -0.0480
      5 C31        16.4630  -17.9880   -3.7400 C.ar    1  MOL1        0.0180
      6 Br32       17.5670  -16.4290   -3.6420 Br      1  MOL1       -0.0510
      7 C33        16.1130  -18.5200   -4.9850 C.ar    1  MOL1       -0.0430
      8  C6        14.9550  -20.2820   -6.4080 C.3     1  MOL1        0.0630
      9  C5        15.8870  -19.7190   -7.4960 C.3     1  MOL1        0.0510
     10  C1        18.1320  -22.9010   -7.4670 C.3     1  MOL1        0.0060
     11  N2        17.0760  -21.9460   -7.1640 N.am    1  MOL1       -0.3590
     12  C3        16.9950  -20.6780   -7.8230 C.2     1  MOL1        0.2220
     13  O4        17.8550  -20.3580   -8.6880 O.2     1  MOL1       -0.2750
     14  N7        13.5510  -20.0340   -6.7510 N.am    1  MOL1       -0.3460
     15  C8        12.7600  -20.9730   -7.4820 C.2     1  MOL1        0.2580
     16  O9        13.2630  -22.0610   -7.8700 O.2     1  MOL1       -0.2710
     17 C10        11.3210  -20.6810   -7.7840 C.3     1  MOL1        0.1670
     18 O11        11.2160  -19.6660   -8.7800 O.3     1  MOL1       -0.4800
     19 C12        10.2770  -18.6360   -8.6920 C.ar    1  MOL1        0.1660
     20 C13         8.9930  -18.7650   -9.2710 C.ar    1  MOL1        0.0120
     21 C21         8.0530  -17.7370   -9.0900 C.ar    1  MOL1       -0.0540
     22 C22         8.3950  -16.5800   -8.3900 C.ar    1  MOL1       -0.0580
     23 C23         9.6780  -16.4330   -7.8630 C.ar    1  MOL1       -0.0160
     24 C24        10.6300  -17.4580   -8.0140 C.ar    1  MOL1        0.1610
     25 C14         8.6040  -19.9810  -10.0810 C.3     1  MOL1        0.0280
     26 N15         7.1340  -20.0880  -10.1780 N.3     1  MOL1       -0.2870
     27 C16         6.6080  -21.1450   -9.2960 C.3     1  MOL1        0.0640
     28 C17         6.1450  -21.9920  -10.4660 C.3     1  MOL1        0.2720
     29 F18         4.7700  -22.1150  -10.5520 F       1  MOL1       -0.2040
     30 F19         6.8250  -23.1920  -10.5890 F       1  MOL1       -0.2040
     31 C20         6.7090  -20.8880  -11.3390 C.3     1  MOL1        0.0640
     32 O25        11.9310  -17.3490   -7.5000 O.3     1  MOL1       -0.4930
     33 C26        13.0560  -16.8940   -8.2450 C.3     1  MOL1        0.0780
@<TRIPOS>BOND
     1    31    28    1
     2    31    26    1
     3    30    28    1
     4    29    28    1
     5    28    27    1
     6    26    25    1
     7    26    27    1
     8    25    20    1
     9    20    21   ar
    10    20    19   ar
    11    21    22   ar
    12    18    19    1
    13    18    17    1
    14    19    24   ar
    15    13    12    2
    16    22    23   ar
    17    33    32    1
    18    24    23   ar
    19    24    32    1
    20    16    15    2
    21    12     9    1
    22    12    11   am
    23    17    15    1
    24     9     8    1
    25    15    14   am
    26    10    11    1
    27    14     8    1
    28     8     1    1
    29     1     7   ar
    30     1     2   ar
    31     7     5   ar
    32     2     3   ar
    33     5     6    1
    34     5     4   ar
    35     3     4   ar
