@<TRIPOS>MOLECULE
L3024_0_out.pdbqt
 33 35 0 0 0
SMALL
GASTEIGER

@<TRIPOS>ATOM
      1 C27         9.2000  -20.4160   -8.9520 C.ar    1  MOL1       -0.0240
      2 C28         9.6760  -21.5320   -9.6640 C.ar    1  MOL1       -0.0570
      3 C29         8.8550  -22.6470   -9.8630 C.ar    1  MOL1       -0.0610
      4 C30         7.5530  -22.6590   -9.3540 C.ar    1  MOL1       -0.0480
      5 C31         7.0670  -21.5550   -8.6470 C.ar    1  MOL1        0.0180
      6 Br32        5.2770  -21.5630   -7.9690 Br      1  MOL1       -0.0510
      7 C33         7.8860  -20.4400   -8.4410 C.ar    1  MOL1       -0.0430
      8  C6        10.1180  -19.2450   -8.6780 C.3     1  MOL1        0.0630
      9  C5        10.3130  -18.4160   -9.9610 C.3     1  MOL1        0.0510
     10  C1         6.9770  -16.4250  -10.2440 C.3     1  MOL1        0.0060
     11  N2         8.2450  -16.9450   -9.7520 N.am    1  MOL1       -0.3590
     12  C3         9.0040  -17.9070  -10.4910 C.2     1  MOL1        0.2220
     13  O4         8.5780  -18.3330  -11.5990 O.2     1  MOL1       -0.2750
     14  N7        11.4100  -19.7190   -8.1690 N.am    1  MOL1       -0.3460
     15  C8        12.3300  -18.8630   -7.4890 C.2     1  MOL1        0.2580
     16  O9        12.0550  -17.6460   -7.3140 O.2     1  MOL1       -0.2710
     17 C10        13.6260  -19.4060   -6.9660 C.3     1  MOL1        0.1670
     18 O11        14.7230  -18.6420   -7.4600 O.3     1  MOL1       -0.4800
     19 C12        15.9250  -18.5290   -6.7570 C.ar    1  MOL1        0.1660
     20 C13        16.3120  -17.3070   -6.1600 C.ar    1  MOL1        0.0120
     21 C21        17.4890  -17.2600   -5.3950 C.ar    1  MOL1       -0.0540
     22 C22        18.2940  -18.3910   -5.2640 C.ar    1  MOL1       -0.0580
     23 C23        17.9370  -19.5830   -5.8960 C.ar    1  MOL1       -0.0160
     24 C24        16.7520  -19.6600   -6.6510 C.ar    1  MOL1        0.1610
     25 C14        15.4920  -16.0460   -6.3230 C.3     1  MOL1        0.0280
     26 N15        14.2630  -16.1210   -5.5070 N.3     1  MOL1       -0.2870
     27 C16        13.5320  -14.8420   -5.5100 C.3     1  MOL1        0.0640
     28 C17        13.7810  -14.6130   -4.0320 C.3     1  MOL1        0.2720
     29 F18        12.6320  -14.6600   -3.2610 F       1  MOL1       -0.2040
     30 F19        14.5910  -13.5210   -3.7650 F       1  MOL1       -0.2040
     31 C20        14.5360  -15.9270   -4.0730 C.3     1  MOL1        0.0640
     32 O25        16.3580  -20.8380   -7.3020 O.3     1  MOL1       -0.4930
     33 C26        16.9510  -22.1140   -7.0870 C.3     1  MOL1        0.0780
@<TRIPOS>BOND
     1    13    12    2
     2    12     9    1
     3    12    11   am
     4    10    11    1
     5     9     8    1
     6     3     2   ar
     7     3     4   ar
     8     2     1   ar
     9     4     5   ar
    10     1     8    1
    11     1     7   ar
    12     8    14    1
    13     5     7   ar
    14     5     6    1
    15    14    15   am
    16    15    16    2
    17    15    17    1
    18    18    17    1
    19    18    19    1
    20    32    33    1
    21    32    24    1
    22    19    24   ar
    23    19    20   ar
    24    24    23   ar
    25    25    20    1
    26    25    26    1
    27    20    21   ar
    28    23    22   ar
    29    27    26    1
    30    27    28    1
    31    26    31    1
    32    21    22   ar
    33    31    28    1
    34    28    30    1
    35    28    29    1
