@<TRIPOS>MOLECULE
L3024_0_out.pdbqt
 33 35 0 0 0
SMALL
GASTEIGER

@<TRIPOS>ATOM
      1 C27        15.4960  -19.5580   -8.3140 C.ar    1  MOL1       -0.0240
      2 C28        16.0220  -20.8510   -8.4880 C.ar    1  MOL1       -0.0570
      3 C29        17.1450  -21.0560   -9.2960 C.ar    1  MOL1       -0.0610
      4 C30        17.7540  -19.9740   -9.9370 C.ar    1  MOL1       -0.0480
      5 C31        17.2430  -18.6820   -9.7700 C.ar    1  MOL1        0.0180
      6 Br32       18.0900  -17.1980  -10.6320 Br      1  MOL1       -0.0510
      7 C33        16.1170  -18.4740   -8.9680 C.ar    1  MOL1       -0.0430
      8  C6        14.2380  -19.3550   -7.4970 C.3     1  MOL1        0.0630
      9  C5        14.3800  -20.0480   -6.1300 C.3     1  MOL1        0.0510
     10  C1        16.4840  -18.9340   -3.0480 C.3     1  MOL1        0.0060
     11  N2        15.7690  -19.7520   -4.0160 N.am    1  MOL1       -0.3590
     12  C3        15.1000  -19.1760   -5.1430 C.2     1  MOL1        0.2220
     13  O4        15.1150  -17.9260   -5.3160 O.2     1  MOL1       -0.2750
     14  N7        13.0730  -19.8750   -8.2210 N.am    1  MOL1       -0.3460
     15  C8        11.9930  -19.0390   -8.6430 C.2     1  MOL1        0.2580
     16  O9        12.0090  -17.8050   -8.3890 O.2     1  MOL1       -0.2710
     17 C10        10.8380  -19.6180   -9.4030 C.3     1  MOL1        0.1670
     18 O11        10.1340  -20.5620   -8.5990 O.3     1  MOL1       -0.4800
     19 C12         9.0110  -21.2450   -9.0710 C.ar    1  MOL1        0.1660
     20 C13         7.7340  -20.6370   -9.0770 C.ar    1  MOL1        0.0120
     21 C21         6.6470  -21.3320   -9.6330 C.ar    1  MOL1       -0.0540
     22 C22         6.8120  -22.6240  -10.1310 C.ar    1  MOL1       -0.0580
     23 C23         8.0620  -23.2410  -10.0780 C.ar    1  MOL1       -0.0160
     24 C24         9.1700  -22.5580   -9.5440 C.ar    1  MOL1        0.1610
     25 C14         7.5060  -19.2590   -8.4980 C.3     1  MOL1        0.0280
     26 N15         6.9150  -18.3640   -9.5140 N.3     1  MOL1       -0.2870
     27 C16         7.9540  -17.7010  -10.3210 C.3     1  MOL1        0.0640
     28 C17         7.6030  -16.3290   -9.7790 C.3     1  MOL1        0.2720
     29 F18         7.0680  -15.4770  -10.7290 F       1  MOL1       -0.2040
     30 F19         8.6060  -15.7580   -9.0130 F       1  MOL1       -0.2040
     31 C20         6.5540  -17.0500   -8.9550 C.3     1  MOL1        0.0640
     32 O25        10.4430  -23.1430   -9.4720 O.3     1  MOL1       -0.4930
     33 C26        10.7490  -24.4620   -9.9110 C.3     1  MOL1        0.0780
@<TRIPOS>BOND
     1    29    28    1
     2     6     5    1
     3    27    28    1
     4    27    26    1
     5    22    23   ar
     6    22    21   ar
     7    23    24   ar
     8     4     5   ar
     9     4     3   ar
    10    33    32    1
    11    28    30    1
    12    28    31    1
    13     5     7   ar
    14    21    20   ar
    15    24    32    1
    16    24    19   ar
    17    26    31    1
    18    26    25    1
    19    17    15    1
    20    17    18    1
    21     3     2   ar
    22    20    19   ar
    23    20    25    1
    24    19    18    1
    25     7     1   ar
    26    15    16    2
    27    15    14   am
    28     2     1   ar
    29     1     8    1
    30    14     8    1
    31     8     9    1
    32     9    12    1
    33    13    12    2
    34    12    11   am
    35    11    10    1
