@<TRIPOS>MOLECULE
L3024_0_out.pdbqt
 33 35 0 0 0
SMALL
GASTEIGER

@<TRIPOS>ATOM
      1 C27        15.8780  -17.7490   -3.3310 C.ar    1  MOL1       -0.0240
      2 C28        15.0140  -16.7200   -2.9130 C.ar    1  MOL1       -0.0570
      3 C29        15.4260  -15.3840   -2.9690 C.ar    1  MOL1       -0.0610
      4 C30        16.7010  -15.0620   -3.4410 C.ar    1  MOL1       -0.0480
      5 C31        17.5690  -16.0760   -3.8620 C.ar    1  MOL1        0.0180
      6 Br32       19.3070  -15.6330   -4.5290 Br      1  MOL1       -0.0510
      7 C33        17.1630  -17.4130   -3.8030 C.ar    1  MOL1       -0.0430
      8  C6        15.4520  -19.1950   -3.1990 C.3     1  MOL1        0.0630
      9  C5        15.9930  -19.7860   -1.8850 C.3     1  MOL1        0.0510
     10  C1        13.4460  -18.9590    0.9440 C.3     1  MOL1        0.0060
     11  N2        14.5050  -18.8390   -0.0480 N.am    1  MOL1       -0.3590
     12  C3        14.9040  -19.9450   -0.8630 C.2     1  MOL1        0.2220
     13  O4        14.3400  -21.0650   -0.7300 O.2     1  MOL1       -0.2750
     14  N7        15.9280  -19.9710   -4.3490 N.am    1  MOL1       -0.3460
     15  C8        15.0490  -20.7360   -5.1770 C.2     1  MOL1        0.2580
     16  O9        13.8150  -20.7730   -4.9290 O.2     1  MOL1       -0.2710
     17 C10        15.5850  -21.4910   -6.3560 C.3     1  MOL1        0.1670
     18 O11        15.4860  -20.7030   -7.5400 O.3     1  MOL1       -0.4800
     19 C12        16.6140  -20.1810   -8.1800 C.ar    1  MOL1        0.1660
     20 C13        16.9520  -18.8130   -8.0650 C.ar    1  MOL1        0.0120
     21 C21        18.1370  -18.3490   -8.6590 C.ar    1  MOL1       -0.0540
     22 C22        18.9470  -19.2140   -9.3950 C.ar    1  MOL1       -0.0580
     23 C23        18.5850  -20.5520   -9.5480 C.ar    1  MOL1       -0.0160
     24 C24        17.4130  -21.0450   -8.9460 C.ar    1  MOL1        0.1610
     25 C14        16.0710  -17.8340   -7.3210 C.3     1  MOL1        0.0280
     26 N15        15.9320  -16.5790   -8.0890 N.3     1  MOL1       -0.2870
     27 C16        16.2630  -15.4030   -7.2670 C.3     1  MOL1        0.0640
     28 C17        14.8400  -14.8820   -7.3090 C.3     1  MOL1        0.2720
     29 F18        14.7030  -13.6950   -8.0090 F       1  MOL1       -0.2040
     30 F19        14.2080  -14.8830   -6.0760 F       1  MOL1       -0.2040
     31 C20        14.5360  -16.1120   -8.1420 C.3     1  MOL1        0.0640
     32 O25        17.0130  -22.3830   -9.0770 O.3     1  MOL1       -0.4930
     33 C26        17.7460  -23.3770   -9.7860 C.3     1  MOL1        0.0780
@<TRIPOS>BOND
     1    33    32    1
     2    23    22   ar
     3    23    24   ar
     4    22    21   ar
     5    32    24    1
     6    24    19   ar
     7    21    20   ar
     8    19    20   ar
     9    19    18    1
    10    31    26    1
    11    31    28    1
    12    26    25    1
    13    26    27    1
    14    20    25    1
    15    29    28    1
    16    18    17    1
    17    28    27    1
    18    28    30    1
    19    17    15    1
    20    15    16    2
    21    15    14   am
    22     6     5    1
    23    14     8    1
    24     5     7   ar
    25     5     4   ar
    26     7     1   ar
    27     4     3   ar
    28     1     8    1
    29     1     2   ar
    30     8     9    1
    31     3     2   ar
    32     9    12    1
    33    12    13    2
    34    12    11   am
    35    11    10    1
