@<TRIPOS>MOLECULE
L3024_0_out.pdbqt
 33 35 0 0 0
SMALL
GASTEIGER

@<TRIPOS>ATOM
      1 C27        12.6020  -17.9060   -8.8060 C.ar    1  MOL1       -0.0240
      2 C28        12.3100  -18.8890   -9.7690 C.ar    1  MOL1       -0.0570
      3 C29        10.9890  -19.1160  -10.1710 C.ar    1  MOL1       -0.0610
      4 C30         9.9490  -18.3650   -9.6160 C.ar    1  MOL1       -0.0480
      5 C31        10.2260  -17.3820   -8.6590 C.ar    1  MOL1        0.0180
      6 Br32        8.8030  -16.3410   -7.9160 Br      1  MOL1       -0.0510
      7 C33        11.5450  -17.1560   -8.2510 C.ar    1  MOL1       -0.0430
      8  C6        14.0240  -17.7170   -8.3240 C.3     1  MOL1        0.0630
      9  C5        14.8180  -19.0240   -8.4970 C.3     1  MOL1        0.0510
     10  C1        17.8870  -17.1990  -10.0530 C.3     1  MOL1        0.0060
     11  N2        16.6240  -17.4590   -9.3780 N.am    1  MOL1       -0.3590
     12  C3        16.1190  -18.7880   -9.2070 C.2     1  MOL1        0.2220
     13  O4        16.7700  -19.7730   -9.6520 O.2     1  MOL1       -0.2750
     14  N7        14.0330  -17.2900   -6.9200 N.am    1  MOL1       -0.3460
     15  C8        14.4770  -15.9940   -6.5130 C.2     1  MOL1        0.2580
     16  O9        14.8920  -15.1670   -7.3680 O.2     1  MOL1       -0.2710
     17 C10        14.4400  -15.6000   -5.0670 C.3     1  MOL1        0.1670
     18 O11        15.6030  -16.0700   -4.3920 O.3     1  MOL1       -0.4800
     19 C12        15.5730  -17.1880   -3.5540 C.ar    1  MOL1        0.1660
     20 C13        14.9590  -17.1320   -2.2820 C.ar    1  MOL1        0.0120
     21 C21        14.8820  -18.3010   -1.5060 C.ar    1  MOL1       -0.0540
     22 C22        15.4460  -19.4920   -1.9620 C.ar    1  MOL1       -0.0580
     23 C23        16.0960  -19.5330   -3.1950 C.ar    1  MOL1       -0.0160
     24 C24        16.1680  -18.3800   -3.9990 C.ar    1  MOL1        0.1610
     25 C14        14.3830  -15.8460   -1.7310 C.3     1  MOL1        0.0280
     26 N15        15.4660  -14.9430   -1.2920 N.3     1  MOL1       -0.2870
     27 C16        16.0310  -15.3630    0.0010 C.3     1  MOL1        0.0640
     28 C17        15.5250  -14.1220    0.7090 C.3     1  MOL1        0.2720
     29 F18        16.5330  -13.2790    1.1430 F       1  MOL1       -0.2040
     30 F19        14.5590  -14.3830    1.6690 F       1  MOL1       -0.2040
     31 C20        14.9460  -13.7300   -0.6360 C.3     1  MOL1        0.0640
     32 O25        16.8130  -18.3790   -5.2450 O.3     1  MOL1       -0.4930
     33 C26        18.2200  -18.5050   -5.4230 C.3     1  MOL1        0.0780
@<TRIPOS>BOND
     1     3     2   ar
     2     3     4   ar
     3    10    11    1
     4     2     1   ar
     5    13    12    2
     6     4     5   ar
     7    11    12   am
     8    12     9    1
     9     1     8    1
    10     1     7   ar
    11     5     7   ar
    12     5     6    1
    13     9     8    1
    14     8    14    1
    15    16    15    2
    16    14    15   am
    17    15    17    1
    18    33    32    1
    19    32    24    1
    20    17    18    1
    21    18    19    1
    22    24    19   ar
    23    24    23   ar
    24    19    20   ar
    25    23    22   ar
    26    20    25    1
    27    20    21   ar
    28    22    21   ar
    29    25    26    1
    30    26    31    1
    31    26    27    1
    32    31    28    1
    33    27    28    1
    34    28    29    1
    35    28    30    1
