@<TRIPOS>MOLECULE
L3024_0_out.pdbqt
 33 35 0 0 0
SMALL
GASTEIGER

@<TRIPOS>ATOM
      1 C27        18.0100  -19.1740   -8.9130 C.ar    1  MOL1       -0.0240
      2 C28        19.1720  -19.9550   -9.0520 C.ar    1  MOL1       -0.0570
      3 C29        20.0640  -20.0920   -7.9830 C.ar    1  MOL1       -0.0610
      4 C30        19.8070  -19.4520   -6.7680 C.ar    1  MOL1       -0.0480
      5 C31        18.6530  -18.6750   -6.6150 C.ar    1  MOL1        0.0180
      6 Br32       18.2900  -17.8170   -4.9440 Br      1  MOL1       -0.0510
      7 C33        17.7610  -18.5310   -7.6830 C.ar    1  MOL1       -0.0430
      8  C6        17.0880  -18.9720  -10.0960 C.3     1  MOL1        0.0630
      9  C5        17.5100  -17.7200  -10.8850 C.3     1  MOL1        0.0510
     10  C1        18.5380  -19.6950  -14.0820 C.3     1  MOL1        0.0060
     11  N2        18.2640  -19.3460  -12.6950 N.am    1  MOL1       -0.3590
     12  C3        17.7930  -18.0460  -12.3230 C.2     1  MOL1        0.2220
     13  O4        17.6090  -17.1640  -13.2060 O.2     1  MOL1       -0.2750
     14  N7        15.6980  -18.8520   -9.6420 N.am    1  MOL1       -0.3460
     15  C8        14.9680  -19.9550   -9.1000 C.2     1  MOL1        0.2580
     16  O9        15.5080  -21.0890   -9.0060 O.2     1  MOL1       -0.2710
     17 C10        13.5570  -19.7710   -8.6270 C.3     1  MOL1        0.1670
     18 O11        12.9870  -18.5970   -9.2010 O.3     1  MOL1       -0.4800
     19 C12        11.9300  -17.9140   -8.5940 C.ar    1  MOL1        0.1660
     20 C13        12.1450  -17.0860   -7.4680 C.ar    1  MOL1        0.0120
     21 C21        11.0690  -16.3560   -6.9390 C.ar    1  MOL1       -0.0540
     22 C22         9.7910  -16.4810   -7.4850 C.ar    1  MOL1       -0.0580
     23 C23         9.5710  -17.3360   -8.5650 C.ar    1  MOL1       -0.0160
     24 C24        10.6390  -18.0630   -9.1250 C.ar    1  MOL1        0.1610
     25 C14        13.5050  -16.9670   -6.8150 C.3     1  MOL1        0.0280
     26 N15        13.9720  -15.5660   -6.8500 N.3     1  MOL1       -0.2870
     27 C16        14.4270  -15.1800   -8.1970 C.3     1  MOL1        0.0640
     28 C17        15.8650  -15.0170   -7.7450 C.3     1  MOL1        0.2720
     29 F18        16.3180  -13.7110   -7.7940 F       1  MOL1       -0.2040
     30 F19        16.7340  -15.9350   -8.3110 F       1  MOL1       -0.2040
     31 C20        15.3610  -15.4310   -6.3760 C.3     1  MOL1        0.0640
     32 O25        10.4600  -18.9340  -10.2090 O.3     1  MOL1       -0.4930
     33 C26         9.3110  -18.9480  -11.0500 C.3     1  MOL1        0.0780
@<TRIPOS>BOND
     1    10    11    1
     2    13    12    2
     3    11    12   am
     4    12     9    1
     5    33    32    1
     6     9     8    1
     7    32    24    1
     8     8    14    1
     9     8     1    1
    10    14    15   am
    11    18    17    1
    12    18    19    1
    13    24    19   ar
    14    24    23   ar
    15    15    16    2
    16    15    17    1
    17     2     1   ar
    18     2     3   ar
    19     1     7   ar
    20    19    20   ar
    21    23    22   ar
    22    30    28    1
    23    27    28    1
    24    27    26    1
    25     3     4   ar
    26    29    28    1
    27    28    31    1
    28     7     5   ar
    29    22    21   ar
    30    20    21   ar
    31    20    25    1
    32    26    25    1
    33    26    31    1
    34     4     5   ar
    35     5     6    1
