@<TRIPOS>MOLECULE
L3024_0_out.pdbqt
 33 35 0 0 0
SMALL
GASTEIGER

@<TRIPOS>ATOM
      1 C27         7.2400  -17.1000  -10.3250 C.ar    1  MOL1       -0.0240
      2 C28         7.5580  -17.8790  -11.4530 C.ar    1  MOL1       -0.0570
      3 C29         7.1140  -17.4980  -12.7240 C.ar    1  MOL1       -0.0610
      4 C30         6.3490  -16.3390  -12.8810 C.ar    1  MOL1       -0.0480
      5 C31         6.0290  -15.5540  -11.7680 C.ar    1  MOL1        0.0180
      6 Br32        5.0000  -13.9550  -11.9880 Br      1  MOL1       -0.0510
      7 C33         6.4660  -15.9340  -10.4950 C.ar    1  MOL1       -0.0430
      8  C6         7.6620  -17.5570   -8.9460 C.3     1  MOL1        0.0630
      9  C5         7.1630  -16.5610   -7.8840 C.3     1  MOL1        0.0510
     10  C1         3.4430  -15.9290   -6.9160 C.3     1  MOL1        0.0060
     11  N2         4.8430  -15.7180   -7.2560 N.am    1  MOL1       -0.3590
     12  C3         5.7270  -16.8120   -7.5260 C.2     1  MOL1        0.2220
     13  O4         5.3020  -17.9980   -7.4660 O.2     1  MOL1       -0.2750
     14  N7         9.1210  -17.6940   -8.8800 N.am    1  MOL1       -0.3460
     15  C8         9.7630  -18.8970   -8.4510 C.2     1  MOL1        0.2580
     16  O9         9.0760  -19.8920   -8.1000 O.2     1  MOL1       -0.2710
     17 C10        11.2590  -18.9920   -8.4280 C.3     1  MOL1        0.1670
     18 O11        11.7190  -19.2960   -7.1130 O.3     1  MOL1       -0.4800
     19 C12        13.0260  -19.7260   -6.8660 C.ar    1  MOL1        0.1660
     20 C13        14.0900  -18.8020   -6.7490 C.ar    1  MOL1        0.0120
     21 C21        15.3720  -19.2720   -6.4220 C.ar    1  MOL1       -0.0540
     22 C22        15.6060  -20.6380   -6.2610 C.ar    1  MOL1       -0.0580
     23 C23        14.5660  -21.5520   -6.4270 C.ar    1  MOL1       -0.0160
     24 C24        13.2680  -21.1030   -6.7350 C.ar    1  MOL1        0.1610
     25 C14        13.8850  -17.3190   -6.9690 C.3     1  MOL1        0.0280
     26 N15        15.1850  -16.6180   -6.9980 N.3     1  MOL1       -0.2870
     27 C16        15.0710  -15.2450   -6.4790 C.3     1  MOL1        0.0640
     28 C17        15.3890  -14.6300   -7.8270 C.3     1  MOL1        0.2720
     29 F18        16.5960  -13.9530   -7.8590 F       1  MOL1       -0.2040
     30 F19        14.3340  -13.9230   -8.3800 F       1  MOL1       -0.2040
     31 C20        15.4840  -16.0580   -8.3270 C.3     1  MOL1        0.0640
     32 O25        12.1950  -21.9890   -6.9100 O.3     1  MOL1       -0.4930
     33 C26        11.8380  -22.5860   -8.1520 C.3     1  MOL1        0.0780
@<TRIPOS>BOND
     1     4     3   ar
     2     4     5   ar
     3     3     2   ar
     4     6     5    1
     5     5     7   ar
     6     2     1   ar
     7     7     1   ar
     8     1     8    1
     9     8    14    1
    10     8     9    1
    11    14    15   am
    12    15    17    1
    13    15    16    2
    14    17    18    1
    15    30    28    1
    16    31    28    1
    17    31    26    1
    18    33    32    1
    19     9    12    1
    20    29    28    1
    21    28    27    1
    22    12    13    2
    23    12    11   am
    24    11    10    1
    25    18    19    1
    26    26    25    1
    27    26    27    1
    28    25    20    1
    29    32    24    1
    30    19    20   ar
    31    19    24   ar
    32    20    21   ar
    33    24    23   ar
    34    23    22   ar
    35    21    22   ar
