@<TRIPOS>MOLECULE
L3024_0_out.pdbqt
 33 35 0 0 0
SMALL
GASTEIGER

@<TRIPOS>ATOM
      1 C27        16.2070  -18.6130   -4.2760 C.ar    1  MOL1       -0.0240
      2 C28        16.3720  -17.2950   -3.8130 C.ar    1  MOL1       -0.0570
      3 C29        16.0480  -16.9640   -2.4930 C.ar    1  MOL1       -0.0610
      4 C30        15.5560  -17.9420   -1.6240 C.ar    1  MOL1       -0.0480
      5 C31        15.3900  -19.2580   -2.0720 C.ar    1  MOL1        0.0180
      6 Br32       14.7380  -20.6010   -0.8760 Br      1  MOL1       -0.0510
      7 C33        15.7080  -19.5920   -3.3920 C.ar    1  MOL1       -0.0430
      8  C6        16.4910  -18.9470   -5.7250 C.3     1  MOL1        0.0630
      9  C5        17.6420  -18.0720   -6.2520 C.3     1  MOL1        0.0510
     10  C1        16.2270  -14.9430   -8.0890 C.3     1  MOL1        0.0060
     11  N2        16.6730  -15.8550   -7.0460 N.am    1  MOL1       -0.3590
     12  C3        17.1810  -17.1580   -7.3500 C.2     1  MOL1        0.2220
     13  O4        17.2480  -17.5470   -8.5480 O.2     1  MOL1       -0.2750
     14  N7        15.2840  -18.7570   -6.5360 N.am    1  MOL1       -0.3460
     15  C8        14.7690  -19.7730   -7.3980 C.2     1  MOL1        0.2580
     16  O9        15.3560  -20.8830   -7.4940 O.2     1  MOL1       -0.2710
     17 C10        13.5160  -19.5350   -8.1870 C.3     1  MOL1        0.1670
     18 O11        12.4060  -19.3380   -7.3130 O.3     1  MOL1       -0.4800
     19 C12        11.3310  -18.5140   -7.6550 C.ar    1  MOL1        0.1660
     20 C13        10.2200  -19.0190   -8.3690 C.ar    1  MOL1        0.0120
     21 C21         9.1270  -18.1750   -8.6220 C.ar    1  MOL1       -0.0540
     22 C22         9.1530  -16.8410   -8.2170 C.ar    1  MOL1       -0.0580
     23 C23        10.2710  -16.3310   -7.5570 C.ar    1  MOL1       -0.0160
     24 C24        11.3710  -17.1630   -7.2750 C.ar    1  MOL1        0.1610
     25 C14        10.1780  -20.4460   -8.8710 C.3     1  MOL1        0.0280
     26 N15         8.9400  -20.6860   -9.6410 N.3     1  MOL1       -0.2870
     27 C16         7.9850  -21.5150   -8.8860 C.3     1  MOL1        0.0640
     28 C17         8.1020  -22.6680   -9.8630 C.3     1  MOL1        0.2720
     29 F18         6.9400  -22.9130  -10.5740 F       1  MOL1       -0.2040
     30 F19         8.6770  -23.8040   -9.3180 F       1  MOL1       -0.2040
     31 C20         9.0900  -21.7890  -10.6050 C.3     1  MOL1        0.0640
     32 O25        12.5140  -16.6890   -6.6140 O.3     1  MOL1       -0.4930
     33 C26        12.8580  -15.3140   -6.4850 C.3     1  MOL1        0.0780
@<TRIPOS>BOND
     1    31    28    1
     2    31    26    1
     3    29    28    1
     4    28    30    1
     5    28    27    1
     6    26    27    1
     7    26    25    1
     8    25    20    1
     9    21    20   ar
    10    21    22   ar
    11    13    12    2
    12    20    19   ar
    13    22    23   ar
    14    17    15    1
    15    17    18    1
    16    10    11    1
    17    19    18    1
    18    19    24   ar
    19    23    24   ar
    20    16    15    2
    21    15    14   am
    22    12    11   am
    23    12     9    1
    24    24    32    1
    25    32    33    1
    26    14     8    1
    27     9     8    1
    28     8     1    1
    29     1     2   ar
    30     1     7   ar
    31     2     3   ar
    32     7     5   ar
    33     3     4   ar
    34     5     4   ar
    35     5     6    1
