@<TRIPOS>MOLECULE
L3024_0_out.pdbqt
 33 35 0 0 0
SMALL
GASTEIGER

@<TRIPOS>ATOM
      1 C27        15.0670  -18.6550   -8.2060 C.ar    1  MOL1       -0.0240
      2 C28        15.3630  -18.8890   -9.5610 C.ar    1  MOL1       -0.0570
      3 C29        16.6280  -19.3530   -9.9390 C.ar    1  MOL1       -0.0610
      4 C30        17.6080  -19.5860   -8.9710 C.ar    1  MOL1       -0.0480
      5 C31        17.3260  -19.3600   -7.6190 C.ar    1  MOL1        0.0180
      6 Br32       18.6610  -19.7000   -6.2910 Br      1  MOL1       -0.0510
      7 C33        16.0640  -18.8910   -7.2380 C.ar    1  MOL1       -0.0430
      8  C6        13.7220  -18.0850   -7.8120 C.3     1  MOL1        0.0630
      9  C5        13.8180  -17.4100   -6.4320 C.3     1  MOL1        0.0510
     10  C1        14.7270  -13.9530   -7.9810 C.3     1  MOL1        0.0060
     11  N2        14.4410  -15.3720   -7.8280 N.am    1  MOL1       -0.3590
     12  C3        14.1180  -15.9440   -6.5560 C.2     1  MOL1        0.2220
     13  O4        14.0790  -15.2160   -5.5270 O.2     1  MOL1       -0.2750
     14  N7        12.7050  -19.1420   -7.8000 N.am    1  MOL1       -0.3460
     15  C8        11.7290  -19.2820   -8.8340 C.2     1  MOL1        0.2580
     16  O9        11.7080  -18.4760   -9.8020 O.2     1  MOL1       -0.2710
     17 C10        10.7280  -20.3980   -8.7860 C.3     1  MOL1        0.1670
     18 O11        10.1620  -20.6160  -10.0760 O.3     1  MOL1       -0.4800
     19 C12         8.8440  -21.0500  -10.2430 C.ar    1  MOL1        0.1660
     20 C13         7.8120  -20.1430  -10.5780 C.ar    1  MOL1        0.0120
     21 C21         6.5180  -20.6350  -10.8140 C.ar    1  MOL1       -0.0540
     22 C22         6.2400  -21.9940  -10.6730 C.ar    1  MOL1       -0.0580
     23 C23         7.2480  -22.8800  -10.2940 C.ar    1  MOL1       -0.0160
     24 C24         8.5570  -22.4140  -10.0710 C.ar    1  MOL1        0.1610
     25 C14         8.0640  -18.6550  -10.6880 C.3     1  MOL1        0.0280
     26 N15         8.1970  -18.0540   -9.3450 N.3     1  MOL1       -0.2870
     27 C16         6.9600  -18.2060   -8.5590 C.3     1  MOL1        0.0640
     28 C17         6.7010  -16.7120   -8.5430 C.3     1  MOL1        0.2720
     29 F18         6.8020  -16.1440   -7.2860 F       1  MOL1       -0.2040
     30 F19         5.5620  -16.3370   -9.2380 F       1  MOL1       -0.2040
     31 C20         7.9710  -16.5990   -9.3630 C.3     1  MOL1        0.0640
     32 O25         9.5990  -23.2710   -9.6880 O.3     1  MOL1       -0.4930
     33 C26         9.4580  -24.6750   -9.4980 C.3     1  MOL1        0.0780
@<TRIPOS>BOND
     1    21    22   ar
     2    21    20   ar
     3    25    20    1
     4    25    26    1
     5    22    23   ar
     6    20    19   ar
     7    23    24   ar
     8    19    18    1
     9    19    24   ar
    10    18    17    1
    11    24    32    1
    12     3     2   ar
    13     3     4   ar
    14    16    15    2
    15    32    33    1
    16     2     1   ar
    17    31    26    1
    18    31    28    1
    19    26    27    1
    20    30    28    1
    21     4     5   ar
    22    15    17    1
    23    15    14   am
    24    27    28    1
    25    28    29    1
    26     1     8    1
    27     1     7   ar
    28    10    11    1
    29    11    12   am
    30     8    14    1
    31     8     9    1
    32     5     7   ar
    33     5     6    1
    34    12     9    1
    35    12    13    2
