@<TRIPOS>MOLECULE
L3024_0_out.pdbqt
 33 35 0 0 0
SMALL
GASTEIGER

@<TRIPOS>ATOM
      1 C27        10.9920  -17.0870   -7.8140 C.ar    1  MOL1       -0.0240
      2 C28         9.8660  -16.2990   -7.5150 C.ar    1  MOL1       -0.0570
      3 C29         8.6700  -16.4790   -8.2180 C.ar    1  MOL1       -0.0610
      4 C30         8.5860  -17.4450   -9.2250 C.ar    1  MOL1       -0.0480
      5 C31         9.6980  -18.2380   -9.5300 C.ar    1  MOL1        0.0180
      6 Br32        9.5760  -19.5740  -10.8930 Br      1  MOL1       -0.0510
      7 C33        10.8970  -18.0570   -8.8330 C.ar    1  MOL1       -0.0430
      8  C6        12.3030  -16.8370   -7.1000 C.3     1  MOL1        0.0630
      9  C5        12.3270  -15.4090   -6.5270 C.3     1  MOL1        0.0510
     10  C1        15.1170  -15.1720   -3.8190 C.3     1  MOL1        0.0060
     11  N2        13.8530  -15.4460   -4.4880 N.am    1  MOL1       -0.3590
     12  C3        13.6380  -15.1040   -5.8620 C.2     1  MOL1        0.2220
     13  O4        14.5540  -14.5460   -6.5260 O.2     1  MOL1       -0.2750
     14  N7        13.4290  -17.0450   -8.0160 N.am    1  MOL1       -0.3460
     15  C8        14.2680  -18.2000   -7.9540 C.2     1  MOL1        0.2580
     16  O9        14.0650  -19.0870   -7.0830 O.2     1  MOL1       -0.2710
     17 C10        15.3910  -18.3760   -8.9330 C.3     1  MOL1        0.1670
     18 O11        16.6180  -17.9140   -8.3730 O.3     1  MOL1       -0.4800
     19 C12        17.8300  -18.5710   -8.5990 C.ar    1  MOL1        0.1660
     20 C13        18.3320  -19.5160   -7.6750 C.ar    1  MOL1        0.0120
     21 C21        19.5140  -20.2110   -7.9800 C.ar    1  MOL1       -0.0540
     22 C22        20.2110  -19.9400   -9.1570 C.ar    1  MOL1       -0.0580
     23 C23        19.7410  -18.9710  -10.0440 C.ar    1  MOL1       -0.0160
     24 C24        18.5480  -18.2760   -9.7690 C.ar    1  MOL1        0.1610
     25 C14        17.6320  -19.7990   -6.3640 C.3     1  MOL1        0.0280
     26 N15        18.2930  -19.0730   -5.2600 N.3     1  MOL1       -0.2870
     27 C16        17.3650  -18.1480   -4.5880 C.3     1  MOL1        0.0640
     28 C17        18.1330  -16.9260   -5.0500 C.3     1  MOL1        0.2720
     29 F18        18.7380  -16.2280   -4.0200 F       1  MOL1       -0.2040
     30 F19        17.4270  -16.1240   -5.9320 F       1  MOL1       -0.2040
     31 C20        19.0580  -17.9090   -5.7390 C.3     1  MOL1        0.0640
     32 O25        18.0420  -17.2940  -10.6330 O.3     1  MOL1       -0.4930
     33 C26        18.8360  -16.5140  -11.5210 C.3     1  MOL1        0.0780
@<TRIPOS>BOND
     1    33    32    1
     2     6     5    1
     3    32    24    1
     4    23    24   ar
     5    23    22   ar
     6    24    19   ar
     7     5     4   ar
     8     5     7   ar
     9     4     3   ar
    10    22    21   ar
    11    17    18    1
    12    17    15    1
    13     7     1   ar
    14    19    18    1
    15    19    20   ar
    16     3     2   ar
    17    14    15   am
    18    14     8    1
    19    21    20   ar
    20    15    16    2
    21     1     2   ar
    22     1     8    1
    23    20    25    1
    24     8     9    1
    25     9    12    1
    26    13    12    2
    27    25    26    1
    28    30    28    1
    29    12    11   am
    30    31    26    1
    31    31    28    1
    32    26    27    1
    33    28    27    1
    34    28    29    1
    35    11    10    1
