@<TRIPOS>MOLECULE
L3024_0_out.pdbqt
 33 35 0 0 0
SMALL
GASTEIGER

@<TRIPOS>ATOM
      1 C27         7.9610  -17.7000  -10.4390 C.ar    1  MOL1       -0.0240
      2 C28         8.1550  -18.2660  -11.7120 C.ar    1  MOL1       -0.0570
      3 C29         7.4820  -17.7510  -12.8260 C.ar    1  MOL1       -0.0610
      4 C30         6.6110  -16.6680  -12.6800 C.ar    1  MOL1       -0.0480
      5 C31         6.4120  -16.0930  -11.4200 C.ar    1  MOL1        0.0180
      6 Br32        5.2360  -14.5970  -11.2250 Br      1  MOL1       -0.0510
      7 C33         7.0790  -16.6090  -10.3040 C.ar    1  MOL1       -0.0430
      8  C6         8.6360  -18.3080   -9.2290 C.3     1  MOL1        0.0630
      9  C5         7.5790  -18.8870   -8.2720 C.3     1  MOL1        0.0510
     10  C1         7.8780  -22.5750   -9.4910 C.3     1  MOL1        0.0060
     11  N2         8.2040  -21.2030   -9.1300 N.am    1  MOL1       -0.3590
     12  C3         7.2090  -20.2940   -8.6450 C.2     1  MOL1        0.2220
     13  O4         6.0120  -20.6710   -8.5260 O.2     1  MOL1       -0.2750
     14  N7         9.4560  -17.3020   -8.5450 N.am    1  MOL1       -0.3460
     15  C8        10.6680  -17.6320   -7.8640 C.2     1  MOL1        0.2580
     16  O9        11.0690  -18.8260   -7.8230 O.2     1  MOL1       -0.2710
     17 C10        11.4830  -16.5610   -7.2030 C.3     1  MOL1        0.1670
     18 O11        12.6890  -17.1060   -6.6730 O.3     1  MOL1       -0.4800
     19 C12        13.9470  -16.6450   -7.0680 C.ar    1  MOL1        0.1660
     20 C13        14.5020  -15.4690   -6.5140 C.ar    1  MOL1        0.0120
     21 C21        15.8030  -15.0850   -6.8820 C.ar    1  MOL1       -0.0540
     22 C22        16.5220  -15.8290   -7.8170 C.ar    1  MOL1       -0.0580
     23 C23        15.9530  -16.9610   -8.4000 C.ar    1  MOL1       -0.0160
     24 C24        14.6600  -17.3760   -8.0330 C.ar    1  MOL1        0.1610
     25 C14        13.7320  -14.6080   -5.5370 C.3     1  MOL1        0.0280
     26 N15        14.6230  -14.1230   -4.4640 N.3     1  MOL1       -0.2870
     27 C16        15.1750  -15.2360   -3.6730 C.3     1  MOL1        0.0640
     28 C17        14.4300  -14.8130   -2.4220 C.3     1  MOL1        0.2720
     29 F18        15.2580  -14.3760   -1.4030 F       1  MOL1       -0.2040
     30 F19        13.4680  -15.7220   -2.0130 F       1  MOL1       -0.2040
     31 C20        13.8730  -13.6890   -3.2730 C.3     1  MOL1        0.0640
     32 O25        14.0520  -18.5080   -8.5960 O.3     1  MOL1       -0.4930
     33 C26        14.0270  -18.8000   -9.9890 C.3     1  MOL1        0.0780
@<TRIPOS>BOND
     1     3     4   ar
     2     3     2   ar
     3     4     5   ar
     4     2     1   ar
     5     5     6    1
     6     5     7   ar
     7     1     7   ar
     8     1     8    1
     9    33    32    1
    10    10    11    1
    11     8    14    1
    12     8     9    1
    13    11    12   am
    14    12    13    2
    15    12     9    1
    16    32    24    1
    17    14    15   am
    18    23    24   ar
    19    23    22   ar
    20    24    19   ar
    21    15    16    2
    22    15    17    1
    23    22    21   ar
    24    17    18    1
    25    19    18    1
    26    19    20   ar
    27    21    20   ar
    28    20    25    1
    29    25    26    1
    30    26    27    1
    31    26    31    1
    32    27    28    1
    33    31    28    1
    34    28    30    1
    35    28    29    1
