@<TRIPOS>MOLECULE
L3024_0_out.pdbqt
 33 35 0 0 0
SMALL
GASTEIGER

@<TRIPOS>ATOM
      1 C27        17.3540  -19.1010   -6.3820 C.ar    1  MOL1       -0.0240
      2 C28        18.4290  -18.1950   -6.3540 C.ar    1  MOL1       -0.0570
      3 C29        18.6890  -17.4390   -5.2060 C.ar    1  MOL1       -0.0610
      4 C30        17.8780  -17.5800   -4.0760 C.ar    1  MOL1       -0.0480
      5 C31        16.8070  -18.4810   -4.0890 C.ar    1  MOL1        0.0180
      6 Br32       15.7120  -18.6890   -2.5340 Br      1  MOL1       -0.0510
      7 C33        16.5420  -19.2340   -5.2370 C.ar    1  MOL1       -0.0430
      8  C6        17.0360  -19.8610   -7.6520 C.3     1  MOL1        0.0630
      9  C5        17.9750  -19.4090   -8.7850 C.3     1  MOL1        0.0510
     10  C1        19.1750  -23.0400   -9.5280 C.3     1  MOL1        0.0060
     11  N2        18.4180  -21.9070   -9.0150 N.am    1  MOL1       -0.3590
     12  C3        18.7820  -20.5560   -9.3210 C.2     1  MOL1        0.2220
     13  O4        19.7840  -20.3210  -10.0490 O.2     1  MOL1       -0.2750
     14  N7        15.6340  -19.6550   -8.0300 N.am    1  MOL1       -0.3460
     15  C8        14.6530  -20.6900   -7.9400 C.2     1  MOL1        0.2580
     16  O9        14.9760  -21.8380   -7.5330 O.2     1  MOL1       -0.2710
     17 C10        13.2270  -20.4180   -8.3150 C.3     1  MOL1        0.1670
     18 O11        13.0830  -19.0840   -8.7980 O.3     1  MOL1       -0.4800
     19 C12        12.0520  -18.2460   -8.3650 C.ar    1  MOL1        0.1660
     20 C13        12.2710  -17.2790   -7.3560 C.ar    1  MOL1        0.0120
     21 C21        11.2280  -16.4050   -7.0080 C.ar    1  MOL1       -0.0540
     22 C22         9.9770  -16.5180   -7.6140 C.ar    1  MOL1       -0.0580
     23 C23         9.7490  -17.5050   -8.5730 C.ar    1  MOL1       -0.0160
     24 C24        10.7840  -18.3800   -8.9520 C.ar    1  MOL1        0.1610
     25 C14        13.5980  -17.1620   -6.6400 C.3     1  MOL1        0.0280
     26 N15        14.1250  -15.7870   -6.7540 N.3     1  MOL1       -0.2870
     27 C16        14.5220  -15.4720   -8.1370 C.3     1  MOL1        0.0640
     28 C17        15.9880  -15.3610   -7.7690 C.3     1  MOL1        0.2720
     29 F18        16.4970  -14.0800   -7.8930 F       1  MOL1       -0.2040
     30 F19        16.7830  -16.3390   -8.3460 F       1  MOL1       -0.2040
     31 C20        15.5420  -15.7010   -6.3600 C.3     1  MOL1        0.0640
     32 O25        10.5960  -19.3860   -9.9110 O.3     1  MOL1       -0.4930
     33 C26         9.4620  -20.2460   -9.9640 C.3     1  MOL1        0.0780
@<TRIPOS>BOND
     1    13    12    2
     2    33    32    1
     3    32    24    1
     4    10    11    1
     5    12    11   am
     6    12     9    1
     7    24    23   ar
     8    24    19   ar
     9    18    19    1
    10    18    17    1
    11     9     8    1
    12    23    22   ar
    13    19    20   ar
    14    30    28    1
    15    17    15    1
    16    27    28    1
    17    27    26    1
    18    14    15   am
    19    14     8    1
    20    15    16    2
    21    29    28    1
    22    28    31    1
    23     8     1    1
    24    22    21   ar
    25    20    21   ar
    26    20    25    1
    27    26    25    1
    28    26    31    1
    29     1     2   ar
    30     1     7   ar
    31     2     3   ar
    32     7     5   ar
    33     3     4   ar
    34     5     4   ar
    35     5     6    1
