@<TRIPOS>MOLECULE
L3024_0_out.pdbqt
 33 35 0 0 0
SMALL
GASTEIGER

@<TRIPOS>ATOM
      1 C27         6.6760  -17.6620   -8.7490 C.ar    1  MOL1       -0.0240
      2 C28         5.8450  -16.8290   -7.9780 C.ar    1  MOL1       -0.0570
      3 C29         4.8150  -17.3770   -7.2050 C.ar    1  MOL1       -0.0610
      4 C30         4.6040  -18.7590   -7.1960 C.ar    1  MOL1       -0.0480
      5 C31         5.4260  -19.5980   -7.9560 C.ar    1  MOL1        0.0180
      6 Br32        5.1510  -21.4910   -7.9250 Br      1  MOL1       -0.0510
      7 C33         6.4530  -19.0540   -8.7340 C.ar    1  MOL1       -0.0430
      8  C6         7.7400  -17.0560   -9.6380 C.3     1  MOL1        0.0630
      9  C5         7.5320  -17.5090  -11.0940 C.3     1  MOL1        0.0510
     10  C1         5.3940  -14.3680  -11.9520 C.3     1  MOL1        0.0060
     11  N2         6.1970  -15.3450  -11.2300 N.am    1  MOL1       -0.3590
     12  C3         6.6980  -16.5270  -11.8640 C.2     1  MOL1        0.2220
     13  O4         6.4430  -16.7490  -13.0790 O.2     1  MOL1       -0.2750
     14  N7         9.0750  -17.4360   -9.1640 N.am    1  MOL1       -0.3460
     15  C8         9.7470  -16.7360   -8.1150 C.2     1  MOL1        0.2580
     16  O9         9.2020  -15.7430   -7.5630 O.2     1  MOL1       -0.2710
     17 C10        11.1010  -17.1830   -7.6510 C.3     1  MOL1        0.1670
     18 O11        11.7730  -17.8960   -8.6860 O.3     1  MOL1       -0.4800
     19 C12        12.4670  -19.0830   -8.4380 C.ar    1  MOL1        0.1660
     20 C13        13.8780  -19.1020   -8.3580 C.ar    1  MOL1        0.0120
     21 C21        14.5300  -20.3020   -8.0290 C.ar    1  MOL1       -0.0540
     22 C22        13.7990  -21.4740   -7.8300 C.ar    1  MOL1       -0.0580
     23 C23        12.4100  -21.4640   -7.9590 C.ar    1  MOL1       -0.0160
     24 C24        11.7340  -20.2690   -8.2690 C.ar    1  MOL1        0.1610
     25 C14        14.7080  -17.8640   -8.6200 C.3     1  MOL1        0.0280
     26 N15        15.4640  -17.4850   -7.4090 N.3     1  MOL1       -0.2870
     27 C16        14.7200  -16.5140   -6.5880 C.3     1  MOL1        0.0640
     28 C17        15.7350  -15.4160   -6.8370 C.3     1  MOL1        0.2720
     29 F18        16.4340  -15.0390   -5.7030 F       1  MOL1       -0.2040
     30 F19        15.2370  -14.3510   -7.5690 F       1  MOL1       -0.2040
     31 C20        16.4650  -16.4400   -7.6840 C.3     1  MOL1        0.0640
     32 O25        10.3390  -20.2170   -8.4080 O.3     1  MOL1       -0.4930
     33 C26         9.4140  -20.6070   -7.3990 C.3     1  MOL1        0.0780
@<TRIPOS>BOND
     1    13    12    2
     2    10    11    1
     3    12    11   am
     4    12     9    1
     5     9     8    1
     6     8    14    1
     7     8     1    1
     8    14    15   am
     9     1     7   ar
    10     1     2   ar
    11     7     5   ar
    12    18    19    1
    13    18    17    1
    14    25    20    1
    15    25    26    1
    16    19    20   ar
    17    19    24   ar
    18    32    24    1
    19    32    33    1
    20    20    21   ar
    21    24    23   ar
    22    15    17    1
    23    15    16    2
    24    21    22   ar
    25     2     3   ar
    26    23    22   ar
    27     5     6    1
    28     5     4   ar
    29    31    26    1
    30    31    28    1
    31    30    28    1
    32    26    27    1
    33     3     4   ar
    34    28    27    1
    35    28    29    1
