@<TRIPOS>MOLECULE
L3024_0_out.pdbqt
 33 35 0 0 0
SMALL
GASTEIGER

@<TRIPOS>ATOM
      1 C27         9.0000  -20.9560   -9.3130 C.ar    1  MOL1       -0.0240
      2 C28         7.8170  -21.5860   -9.7390 C.ar    1  MOL1       -0.0570
      3 C29         7.7860  -22.9710   -9.9400 C.ar    1  MOL1       -0.0610
      4 C30         8.9330  -23.7370   -9.7180 C.ar    1  MOL1       -0.0480
      5 C31        10.1150  -23.1230   -9.2900 C.ar    1  MOL1        0.0180
      6 Br32       11.6790  -24.1760   -8.9660 Br      1  MOL1       -0.0510
      7 C33        10.1510  -21.7390   -9.0940 C.ar    1  MOL1       -0.0430
      8  C6         9.0450  -19.4500   -9.1680 C.3     1  MOL1        0.0630
      9  C5         7.9520  -18.8030  -10.0380 C.3     1  MOL1        0.0510
     10  C1         5.8300  -16.6860   -7.5510 C.3     1  MOL1        0.0060
     11  N2         6.4420  -17.8100   -8.2430 N.am    1  MOL1       -0.3590
     12  C3         7.3290  -17.6230   -9.3510 C.2     1  MOL1        0.2220
     13  O4         7.5950  -16.4590   -9.7580 O.2     1  MOL1       -0.2750
     14  N7        10.3700  -18.9430   -9.5410 N.am    1  MOL1       -0.3460
     15  C8        11.0370  -17.9180   -8.8030 C.2     1  MOL1        0.2580
     16  O9        10.4880  -17.4020   -7.7930 O.2     1  MOL1       -0.2710
     17 C10        12.4030  -17.4540   -9.2130 C.3     1  MOL1        0.1670
     18 O11        13.2910  -17.4690   -8.0970 O.3     1  MOL1       -0.4800
     19 C12        14.5110  -16.7890   -8.1120 C.ar    1  MOL1        0.1660
     20 C13        15.6790  -17.3940   -8.6320 C.ar    1  MOL1        0.0120
     21 C21        16.8660  -16.6450   -8.7010 C.ar    1  MOL1       -0.0540
     22 C22        16.9070  -15.3380   -8.2170 C.ar    1  MOL1       -0.0580
     23 C23        15.7670  -14.7600   -7.6580 C.ar    1  MOL1       -0.0160
     24 C24        14.5610  -15.4830   -7.5970 C.ar    1  MOL1        0.1610
     25 C14        15.6860  -18.8270   -9.1170 C.3     1  MOL1        0.0280
     26 N15        16.4730  -19.6770   -8.2010 N.3     1  MOL1       -0.2870
     27 C16        16.5940  -21.0540   -8.7100 C.3     1  MOL1        0.0640
     28 C17        15.7740  -21.6250   -7.5700 C.3     1  MOL1        0.2720
     29 F18        16.4990  -22.4400   -6.7180 F       1  MOL1       -0.2040
     30 F19        14.5640  -22.1670   -7.9710 F       1  MOL1       -0.2040
     31 C20        15.6610  -20.1930   -7.0860 C.3     1  MOL1        0.0640
     32 O25        13.3930  -14.9400   -7.0430 O.3     1  MOL1       -0.4930
     33 C26        12.9720  -15.1400   -5.6980 C.3     1  MOL1        0.0780
@<TRIPOS>BOND
     1     9    12    1
     2     9     8    1
     3     3     2   ar
     4     3     4   ar
     5    13    12    2
     6     2     1   ar
     7     4     5   ar
     8    14     8    1
     9    14    15   am
    10    12    11   am
    11     1     8    1
    12     1     7   ar
    13     5     7   ar
    14     5     6    1
    15    17    15    1
    16    17    18    1
    17    25    20    1
    18    25    26    1
    19    15    16    2
    20    27    26    1
    21    27    28    1
    22    21    20   ar
    23    21    22   ar
    24    20    19   ar
    25    11    10    1
    26    22    23   ar
    27    26    31    1
    28    19    18    1
    29    19    24   ar
    30    30    28    1
    31    23    24   ar
    32    24    32    1
    33    28    31    1
    34    28    29    1
    35    32    33    1
