@<TRIPOS>MOLECULE
L3024_0_out.pdbqt
 33 35 0 0 0
SMALL
GASTEIGER

@<TRIPOS>ATOM
      1 C27         7.0200  -19.4400   -9.7450 C.ar    1  MOL1       -0.0240
      2 C28         7.0520  -20.2870  -10.8670 C.ar    1  MOL1       -0.0570
      3 C29         6.3280  -21.4850  -10.8700 C.ar    1  MOL1       -0.0610
      4 C30         5.5670  -21.8470   -9.7550 C.ar    1  MOL1       -0.0480
      5 C31         5.5240  -21.0110   -8.6330 C.ar    1  MOL1        0.0180
      6 Br32        4.4650  -21.4970   -7.1160 Br      1  MOL1       -0.0510
      7 C33         6.2510  -19.8160   -8.6250 C.ar    1  MOL1       -0.0430
      8  C6         7.8630  -18.1830   -9.7210 C.3     1  MOL1        0.0630
      9  C5         7.6220  -17.3620  -11.0010 C.3     1  MOL1        0.0510
     10  C1         4.9820  -14.5960  -11.7480 C.3     1  MOL1        0.0060
     11  N2         6.0270  -15.5970  -11.9110 N.am    1  MOL1       -0.3590
     12  C3         6.5510  -16.3290  -10.7980 C.2     1  MOL1        0.2220
     13  O4         6.1120  -16.1120   -9.6360 O.2     1  MOL1       -0.2750
     14  N7         9.2830  -18.5260   -9.5880 N.am    1  MOL1       -0.3460
     15  C8        10.1570  -17.8460   -8.6850 C.2     1  MOL1        0.2580
     16  O9         9.7240  -16.9040   -7.9690 O.2     1  MOL1       -0.2710
     17 C10        11.5950  -18.2540   -8.5690 C.3     1  MOL1        0.1670
     18 O11        11.8350  -18.8870   -7.3140 O.3     1  MOL1       -0.4800
     19 C12        13.0370  -19.5390   -7.0300 C.ar    1  MOL1        0.1660
     20 C13        14.1590  -18.8280   -6.5470 C.ar    1  MOL1        0.0120
     21 C21        15.3220  -19.5360   -6.2000 C.ar    1  MOL1       -0.0540
     22 C22        15.3890  -20.9180   -6.3750 C.ar    1  MOL1       -0.0580
     23 C23        14.2980  -21.6110   -6.9000 C.ar    1  MOL1       -0.0160
     24 C24        13.1150  -20.9270   -7.2360 C.ar    1  MOL1        0.1610
     25 C14        14.1430  -17.3230   -6.3940 C.3     1  MOL1        0.0280
     26 N15        15.4400  -16.7490   -6.8050 N.3     1  MOL1       -0.2870
     27 C16        15.5590  -15.3360   -6.4040 C.3     1  MOL1        0.0640
     28 C17        15.5710  -14.8530   -7.8400 C.3     1  MOL1        0.2720
     29 F18        16.7760  -14.2940   -8.2290 F       1  MOL1       -0.2040
     30 F19        14.4640  -14.0940   -8.1830 F       1  MOL1       -0.2040
     31 C20        15.4360  -16.3170   -8.2130 C.3     1  MOL1        0.0640
     32 O25        11.9970  -21.5860   -7.7660 O.3     1  MOL1       -0.4930
     33 C26        11.9810  -22.9540   -8.1600 C.3     1  MOL1        0.0780
@<TRIPOS>BOND
     1    11    10    1
     2    11    12   am
     3     9    12    1
     4     9     8    1
     5     3     2   ar
     6     3     4   ar
     7     2     1   ar
     8    12    13    2
     9     4     5   ar
    10     1     8    1
    11     1     7   ar
    12     8    14    1
    13    14    15   am
    14    15    17    1
    15    15    16    2
    16     5     7   ar
    17     5     6    1
    18    17    18    1
    19    29    28    1
    20    31    28    1
    21    31    26    1
    22    30    28    1
    23    33    32    1
    24    28    27    1
    25    32    24    1
    26    18    19    1
    27    24    19   ar
    28    24    23   ar
    29    19    20   ar
    30    23    22   ar
    31    26    27    1
    32    26    25    1
    33    20    25    1
    34    20    21   ar
    35    22    21   ar
