@<TRIPOS>MOLECULE
L3024_0_out.pdbqt
 33 35 0 0 0
SMALL
GASTEIGER

@<TRIPOS>ATOM
      1 C27        10.1980  -18.0220   -8.6810 C.ar    1  MOL1       -0.0240
      2 C28         9.7230  -16.9540   -7.8990 C.ar    1  MOL1       -0.0570
      3 C29         8.5840  -16.2420   -8.2910 C.ar    1  MOL1       -0.0610
      4 C30         7.9100  -16.5890   -9.4640 C.ar    1  MOL1       -0.0480
      5 C31         8.3700  -17.6520  -10.2500 C.ar    1  MOL1        0.0180
      6 Br32        7.4330  -18.1410  -11.8450 Br      1  MOL1       -0.0510
      7 C33         9.5110  -18.3620   -9.8640 C.ar    1  MOL1       -0.0430
      8  C6        11.4720  -18.7390   -8.2890 C.3     1  MOL1        0.0630
      9  C5        11.1610  -19.8450   -7.2650 C.3     1  MOL1        0.0510
     10  C1        12.5380  -23.4340   -7.8980 C.3     1  MOL1        0.0060
     11  N2        12.3450  -22.0990   -7.3500 N.am    1  MOL1       -0.3590
     12  C3        11.3420  -21.2130   -7.8580 C.2     1  MOL1        0.2220
     13  O4        10.5990  -21.5780   -8.8100 O.2     1  MOL1       -0.2750
     14  N7        12.4440  -17.7870   -7.7410 N.am    1  MOL1       -0.3460
     15  C8        13.8080  -17.7500   -8.1660 C.2     1  MOL1        0.2580
     16  O9        14.2250  -18.5600   -9.0360 O.2     1  MOL1       -0.2710
     17 C10        14.7540  -16.7380   -7.5920 C.3     1  MOL1        0.1670
     18 O11        15.0760  -17.0650   -6.2420 O.3     1  MOL1       -0.4800
     19 C12        16.3510  -16.8530   -5.7120 C.ar    1  MOL1        0.1660
     20 C13        17.4390  -17.6820   -6.0700 C.ar    1  MOL1        0.0120
     21 C21        18.7190  -17.3840   -5.5750 C.ar    1  MOL1       -0.0540
     22 C22        18.9090  -16.3130   -4.7020 C.ar    1  MOL1       -0.0580
     23 C23        17.8260  -15.5270   -4.3100 C.ar    1  MOL1       -0.0160
     24 C24        16.5370  -15.7940   -4.8090 C.ar    1  MOL1        0.1610
     25 C14        17.2620  -18.8830   -6.9720 C.3     1  MOL1        0.0280
     26 N15        17.0250  -20.1000   -6.1690 N.3     1  MOL1       -0.2870
     27 C16        17.4090  -21.3170   -6.9040 C.3     1  MOL1        0.0640
     28 C17        15.9790  -21.8130   -6.9780 C.3     1  MOL1        0.2720
     29 F18        15.7520  -22.9650   -6.2450 F       1  MOL1       -0.2040
     30 F19        15.4690  -21.8570   -8.2650 F       1  MOL1       -0.2040
     31 C20        15.6210  -20.5420   -6.2320 C.3     1  MOL1        0.0640
     32 O25        15.4210  -15.0280   -4.4390 O.3     1  MOL1       -0.4930
     33 C26        15.2310  -14.4520   -3.1510 C.3     1  MOL1        0.0780
@<TRIPOS>BOND
     1     6     5    1
     2     5     7   ar
     3     5     4   ar
     4     7     1   ar
     5     4     3   ar
     6    16    15    2
     7    13    12    2
     8     1     8    1
     9     1     2   ar
    10     3     2   ar
    11     8    14    1
    12     8     9    1
    13    30    28    1
    14    15    14   am
    15    15    17    1
    16    10    11    1
    17    12    11   am
    18    12     9    1
    19    17    18    1
    20    28    27    1
    21    28    29    1
    22    28    31    1
    23    25    26    1
    24    25    20    1
    25    27    26    1
    26    18    19    1
    27    31    26    1
    28    20    19   ar
    29    20    21   ar
    30    19    24   ar
    31    21    22   ar
    32    24    32    1
    33    24    23   ar
    34    22    23   ar
    35    32    33    1
