@<TRIPOS>MOLECULE
L3024_0_out.pdbqt
 33 35 0 0 0
SMALL
GASTEIGER

@<TRIPOS>ATOM
      1 C27         6.5990  -19.3230   -8.6110 C.ar    1  MOL1       -0.0240
      2 C28         7.7480  -18.7790   -9.2140 C.ar    1  MOL1       -0.0570
      3 C29         8.0200  -17.4110   -9.1120 C.ar    1  MOL1       -0.0610
      4 C30         7.1490  -16.5730   -8.4090 C.ar    1  MOL1       -0.0480
      5 C31         6.0050  -17.1020   -7.8020 C.ar    1  MOL1        0.0180
      6 Br32        4.8250  -15.9590   -6.8210 Br      1  MOL1       -0.0510
      7 C33         5.7270  -18.4690   -7.9060 C.ar    1  MOL1       -0.0430
      8  C6         6.2740  -20.7910   -8.7880 C.3     1  MOL1        0.0630
      9  C5         5.3580  -21.2690   -7.6470 C.3     1  MOL1        0.0510
     10  C1         2.5340  -22.3380  -10.1080 C.3     1  MOL1        0.0060
     11  N2         3.8080  -21.8780   -9.5740 N.am    1  MOL1       -0.3590
     12  C3         4.0290  -21.7370   -8.1670 C.2     1  MOL1        0.2220
     13  O4         3.1060  -22.0080   -7.3510 O.2     1  MOL1       -0.2750
     14  N7         7.5080  -21.5840   -8.8260 N.am    1  MOL1       -0.3460
     15  C8         7.6910  -22.6770   -9.7270 C.2     1  MOL1        0.2580
     16  O9         6.7730  -23.0040  -10.5250 O.2     1  MOL1       -0.2710
     17 C10         8.9830  -23.4380   -9.7430 C.3     1  MOL1        0.1670
     18 O11        10.0870  -22.5520   -9.5730 O.3     1  MOL1       -0.4800
     19 C12        11.1020  -22.8010   -8.6450 C.ar    1  MOL1        0.1660
     20 C13        11.4680  -21.8320   -7.6840 C.ar    1  MOL1        0.0120
     21 C21        12.4390  -22.1550   -6.7210 C.ar    1  MOL1       -0.0540
     22 C22        13.0700  -23.3980   -6.7410 C.ar    1  MOL1       -0.0580
     23 C23        12.7430  -24.3350   -7.7220 C.ar    1  MOL1       -0.0160
     24 C24        11.7590  -24.0420   -8.6840 C.ar    1  MOL1        0.1610
     25 C14        10.8440  -20.4540   -7.6640 C.3     1  MOL1        0.0280
     26 N15        11.8880  -19.4170   -7.5400 N.3     1  MOL1       -0.2870
     27 C16        11.3390  -18.0670   -7.7510 C.3     1  MOL1        0.0640
     28 C17        12.1330  -17.8630   -9.0260 C.3     1  MOL1        0.2720
     29 F18        13.1010  -16.8780   -8.9270 F       1  MOL1       -0.2040
     30 F19        11.3480  -17.7660  -10.1630 F       1  MOL1       -0.2040
     31 C20        12.6670  -19.2610   -8.7810 C.3     1  MOL1        0.0640
     32 O25        11.4020  -24.9550   -9.6870 O.3     1  MOL1       -0.4930
     33 C26        12.0900  -25.1010  -10.9250 C.3     1  MOL1        0.0780
@<TRIPOS>BOND
     1    33    32    1
     2    16    15    2
     3    30    28    1
     4    10    11    1
     5    17    15    1
     6    17    18    1
     7    15    14   am
     8    32    24    1
     9    11    12   am
    10    18    19    1
    11     2     3   ar
    12     2     1   ar
    13     3     4   ar
    14    28    29    1
    15    28    31    1
    16    28    27    1
    17    14     8    1
    18     8     1    1
    19     8     9    1
    20    31    26    1
    21    24    19   ar
    22    24    23   ar
    23    19    20   ar
    24     1     7   ar
    25     4     5   ar
    26    12     9    1
    27    12    13    2
    28     7     5   ar
    29     5     6    1
    30    27    26    1
    31    23    22   ar
    32    20    25    1
    33    20    21   ar
    34    25    26    1
    35    22    21   ar
