@<TRIPOS>MOLECULE
L3024_0_out.pdbqt
 33 35 0 0 0
SMALL
GASTEIGER

@<TRIPOS>ATOM
      1 C27        16.5610  -19.6390   -5.8110 C.ar    1  MOL1       -0.0240
      2 C28        17.7830  -19.0670   -6.2080 C.ar    1  MOL1       -0.0570
      3 C29        18.4350  -18.1440   -5.3820 C.ar    1  MOL1       -0.0610
      4 C30        17.8730  -17.7840   -4.1540 C.ar    1  MOL1       -0.0480
      5 C31        16.6590  -18.3480   -3.7450 C.ar    1  MOL1        0.0180
      6 Br32       15.9030  -17.8710   -2.0540 Br      1  MOL1       -0.0510
      7 C33        16.0030  -19.2670   -4.5710 C.ar    1  MOL1       -0.0430
      8  C6        15.8270  -20.5800   -6.7420 C.3     1  MOL1        0.0630
      9  C5        16.4780  -20.5550   -8.1370 C.3     1  MOL1        0.0510
     10  C1        18.8600  -23.6060   -8.5720 C.3     1  MOL1        0.0060
     11  N2        18.3350  -22.2960   -8.2140 N.am    1  MOL1       -0.3590
     12  C3        16.9930  -21.9100   -8.5280 C.2     1  MOL1        0.2220
     13  O4        16.2300  -22.7100   -9.1360 O.2     1  MOL1       -0.2750
     14  N7        14.4110  -20.2100   -6.8260 N.am    1  MOL1       -0.3460
     15  C8        13.3560  -21.1620   -6.6710 C.2     1  MOL1        0.2580
     16  O9        13.6220  -22.3760   -6.4640 O.2     1  MOL1       -0.2710
     17 C10        11.9240  -20.7250   -6.7400 C.3     1  MOL1        0.1670
     18 O11        11.6690  -20.0430   -7.9660 O.3     1  MOL1       -0.4800
     19 C12        10.7930  -18.9560   -8.0410 C.ar    1  MOL1        0.1660
     20 C13         9.4670  -19.1160   -8.5040 C.ar    1  MOL1        0.0120
     21 C21         8.5980  -18.0130   -8.4880 C.ar    1  MOL1       -0.0540
     22 C22         9.0490  -16.7620   -8.0660 C.ar    1  MOL1       -0.0580
     23 C23        10.3720  -16.5950   -7.6570 C.ar    1  MOL1       -0.0160
     24 C24        11.2560  -17.6910   -7.6450 C.ar    1  MOL1        0.1610
     25 C14         8.9580  -20.4440   -9.0190 C.3     1  MOL1        0.0280
     26 N15         7.5130  -20.3630   -9.3160 N.3     1  MOL1       -0.2870
     27 C16         6.7840  -21.5240   -8.7780 C.3     1  MOL1        0.0640
     28 C17         6.4270  -22.0330  -10.1610 C.3     1  MOL1        0.2720
     29 F18         5.0730  -21.9800  -10.4410 F       1  MOL1       -0.2040
     30 F19         7.0190  -23.2440  -10.4800 F       1  MOL1       -0.2040
     31 C20         7.1980  -20.8330  -10.6760 C.3     1  MOL1        0.0640
     32 O25        12.5930  -17.5650   -7.2420 O.3     1  MOL1       -0.4930
     33 C26        13.4690  -16.5280   -7.6700 C.3     1  MOL1        0.0780
@<TRIPOS>BOND
     1    31    28    1
     2    31    26    1
     3    30    28    1
     4    29    28    1
     5    28    27    1
     6    26    25    1
     7    26    27    1
     8    13    12    2
     9    25    20    1
    10    10    11    1
    11    12    11   am
    12    12     9    1
    13    20    21   ar
    14    20    19   ar
    15    21    22   ar
    16     9     8    1
    17    22    23   ar
    18    19    18    1
    19    19    24   ar
    20    18    17    1
    21    33    32    1
    22    23    24   ar
    23    24    32    1
    24    14     8    1
    25    14    15   am
    26     8     1    1
    27    17    15    1
    28    15    16    2
    29     2     1   ar
    30     2     3   ar
    31     1     7   ar
    32     3     4   ar
    33     7     5   ar
    34     4     5   ar
    35     5     6    1
