@<TRIPOS>MOLECULE
L3024_0_out.pdbqt
 33 35 0 0 0
SMALL
GASTEIGER

@<TRIPOS>ATOM
      1 C27        10.3360  -18.4730   -8.8390 C.ar    1  MOL1       -0.0240
      2 C28        10.0160  -17.4110   -7.9740 C.ar    1  MOL1       -0.0570
      3 C29         8.9540  -16.5500   -8.2730 C.ar    1  MOL1       -0.0610
      4 C30         8.2040  -16.7400   -9.4370 C.ar    1  MOL1       -0.0480
      5 C31         8.5110  -17.7940  -10.3040 C.ar    1  MOL1        0.0180
      6 Br32        7.4690  -18.0660  -11.8860 Br      1  MOL1       -0.0510
      7 C33         9.5740  -18.6540  -10.0110 C.ar    1  MOL1       -0.0430
      8  C6        11.5310  -19.3550   -8.5460 C.3     1  MOL1        0.0630
      9  C5        11.1220  -20.4980   -7.5980 C.3     1  MOL1        0.0510
     10  C1        14.3380  -22.6840   -7.3710 C.3     1  MOL1        0.0060
     11  N2        13.1620  -21.9960   -7.8830 N.am    1  MOL1       -0.3590
     12  C3        12.3230  -21.2030   -7.0370 C.2     1  MOL1        0.2220
     13  O4        12.5900  -21.0890   -5.8090 O.2     1  MOL1       -0.2750
     14  N7        12.6170  -18.5620   -7.9600 N.am    1  MOL1       -0.3460
     15  C8        13.8760  -18.3830   -8.6110 C.2     1  MOL1        0.2580
     16  O9        14.0960  -18.9230   -9.7270 O.2     1  MOL1       -0.2710
     17 C10        14.9430  -17.5400   -7.9790 C.3     1  MOL1        0.1670
     18 O11        15.3290  -18.0840   -6.7200 O.3     1  MOL1       -0.4800
     19 C12        16.3980  -17.5660   -5.9840 C.ar    1  MOL1        0.1660
     20 C13        17.7300  -17.9560   -6.2550 C.ar    1  MOL1        0.0120
     21 C21        18.7800  -17.3510   -5.5450 C.ar    1  MOL1       -0.0540
     22 C22        18.5110  -16.4110   -4.5500 C.ar    1  MOL1       -0.0580
     23 C23        17.1940  -16.0640   -4.2490 C.ar    1  MOL1       -0.0160
     24 C24        16.1270  -16.6430   -4.9610 C.ar    1  MOL1        0.1610
     25 C14        18.0560  -19.0110   -7.2900 C.3     1  MOL1        0.0280
     26 N15        18.8880  -20.0770   -6.6950 N.3     1  MOL1       -0.2870
     27 C16        20.1270  -20.2890   -7.4630 C.3     1  MOL1        0.0640
     28 C17        19.7100  -21.6820   -7.8910 C.3     1  MOL1        0.2720
     29 F18        20.4970  -22.6860   -7.3550 F       1  MOL1       -0.2040
     30 F19        19.4930  -21.8050   -9.2540 F       1  MOL1       -0.2040
     31 C20        18.4420  -21.4210   -7.1010 C.3     1  MOL1        0.0640
     32 O25        14.7890  -16.3220   -4.6890 O.3     1  MOL1       -0.4930
     33 C26        14.1030  -15.1980   -5.2310 C.3     1  MOL1        0.0780
@<TRIPOS>BOND
     1     6     5    1
     2     5     7   ar
     3     5     4   ar
     4     7     1   ar
     5    16    15    2
     6     4     3   ar
     7    30    28    1
     8     1     8    1
     9     1     2   ar
    10    15    17    1
    11    15    14   am
    12     8    14    1
    13     8     9    1
    14     3     2   ar
    15    17    18    1
    16    28    27    1
    17    28    29    1
    18    28    31    1
    19    11    10    1
    20    11    12   am
    21     9    12    1
    22    27    26    1
    23    25    26    1
    24    25    20    1
    25    31    26    1
    26    12    13    2
    27    18    19    1
    28    20    19   ar
    29    20    21   ar
    30    19    24   ar
    31    21    22   ar
    32    33    32    1
    33    24    32    1
    34    24    23   ar
    35    22    23   ar
