@<TRIPOS>MOLECULE
L3024_0_out.pdbqt
 33 35 0 0 0
SMALL
GASTEIGER

@<TRIPOS>ATOM
      1 C27         9.5480  -21.4650   -9.1810 C.ar    1  MOL1       -0.0240
      2 C28         8.5430  -22.3250   -9.6590 C.ar    1  MOL1       -0.0570
      3 C29         8.7660  -23.7050   -9.7270 C.ar    1  MOL1       -0.0610
      4 C30         9.9920  -24.2380   -9.3180 C.ar    1  MOL1       -0.0480
      5 C31        10.9980  -23.3930   -8.8370 C.ar    1  MOL1        0.0180
      6 Br32       12.6680  -24.1260   -8.2570 Br      1  MOL1       -0.0510
      7 C33        10.7810  -22.0130   -8.7730 C.ar    1  MOL1       -0.0430
      8  C6         9.3250  -19.9680   -9.1790 C.3     1  MOL1        0.0630
      9  C5         8.1890  -19.6030  -10.1520 C.3     1  MOL1        0.0510
     10  C1         6.9090  -15.9740  -10.7570 C.3     1  MOL1        0.0060
     11  N2         7.4270  -17.3170  -10.9770 N.am    1  MOL1       -0.3590
     12  C3         7.6650  -18.2210   -9.8920 C.2     1  MOL1        0.2220
     13  O4         7.4300  -17.8610   -8.7060 O.2     1  MOL1       -0.2750
     14  N7        10.5620  -19.2700   -9.5450 N.am    1  MOL1       -0.3460
     15  C8        11.1890  -18.3150   -8.6860 C.2     1  MOL1        0.2580
     16  O9        10.6780  -18.0330   -7.5700 O.2     1  MOL1       -0.2710
     17 C10        12.4680  -17.6490   -9.0980 C.3     1  MOL1        0.1670
     18 O11        13.3690  -17.5740   -7.9950 O.3     1  MOL1       -0.4800
     19 C12        14.5530  -16.8340   -8.0550 C.ar    1  MOL1        0.1660
     20 C13        15.7580  -17.4190   -8.5090 C.ar    1  MOL1        0.0120
     21 C21        16.9060  -16.6180   -8.6270 C.ar    1  MOL1       -0.0540
     22 C22        16.8730  -15.2730   -8.2560 C.ar    1  MOL1       -0.0580
     23 C23        15.6960  -14.7120   -7.7600 C.ar    1  MOL1       -0.0160
     24 C24        14.5280  -15.4890   -7.6520 C.ar    1  MOL1        0.1610
     25 C14        15.8450  -18.8850   -8.8700 C.3     1  MOL1        0.0280
     26 N15        16.2290  -19.6850   -7.6890 N.3     1  MOL1       -0.2870
     27 C16        17.1690  -20.7610   -8.0450 C.3     1  MOL1        0.0640
     28 C17        16.1670  -21.8480   -7.7070 C.3     1  MOL1        0.2720
     29 F18        16.5290  -22.6160   -6.6140 F       1  MOL1       -0.2040
     30 F19        15.7570  -22.5890   -8.8030 F       1  MOL1       -0.2040
     31 C20        15.2250  -20.7110   -7.3620 C.3     1  MOL1        0.0640
     32 O25        13.3250  -14.9630   -7.1580 O.3     1  MOL1       -0.4930
     33 C26        12.9020  -15.0560   -5.8020 C.3     1  MOL1        0.0780
@<TRIPOS>BOND
     1    11    10    1
     2    11    12   am
     3     9    12    1
     4     9     8    1
     5    12    13    2
     6     3     2   ar
     7     3     4   ar
     8     2     1   ar
     9    14     8    1
    10    14    15   am
    11     4     5   ar
    12     1     8    1
    13     1     7   ar
    14    17    15    1
    15    17    18    1
    16    25    20    1
    17    25    26    1
    18     5     7   ar
    19     5     6    1
    20    30    28    1
    21    15    16    2
    22    21    20   ar
    23    21    22   ar
    24    20    19   ar
    25    22    23   ar
    26    19    18    1
    27    19    24   ar
    28    27    28    1
    29    27    26    1
    30    23    24   ar
    31    28    31    1
    32    28    29    1
    33    26    31    1
    34    24    32    1
    35    32    33    1
