@<TRIPOS>MOLECULE
L3024_0_out.pdbqt
 33 35 0 0 0
SMALL
GASTEIGER

@<TRIPOS>ATOM
      1 C27        15.9610  -18.8380   -6.1500 C.ar    1  MOL1       -0.0240
      2 C28        16.8790  -19.6090   -5.4150 C.ar    1  MOL1       -0.0570
      3 C29        17.2050  -19.2580   -4.1000 C.ar    1  MOL1       -0.0610
      4 C30        16.6190  -18.1360   -3.5080 C.ar    1  MOL1       -0.0480
      5 C31        15.7020  -17.3620   -4.2280 C.ar    1  MOL1        0.0180
      6 Br32       14.8830  -15.8380   -3.4090 Br      1  MOL1       -0.0510
      7 C33        15.3780  -17.7070   -5.5440 C.ar    1  MOL1       -0.0430
      8  C6        15.6690  -19.1820   -7.5950 C.3     1  MOL1        0.0630
      9  C5        16.4440  -18.2350   -8.5290 C.3     1  MOL1        0.0510
     10  C1        19.7760  -18.7850  -10.4710 C.3     1  MOL1        0.0060
     11  N2        18.5940  -18.1620   -9.8940 N.am    1  MOL1       -0.3590
     12  C3        17.6480  -18.9090   -9.1200 C.2     1  MOL1        0.2220
     13  O4        17.8240  -20.1430   -8.9280 O.2     1  MOL1       -0.2750
     14  N7        14.2280  -19.0990   -7.8560 N.am    1  MOL1       -0.3460
     15  C8        13.3810  -20.2500   -7.8650 C.2     1  MOL1        0.2580
     16  O9        13.8630  -21.3950   -7.6540 O.2     1  MOL1       -0.2710
     17 C10        11.9090  -20.1070   -8.1120 C.3     1  MOL1        0.1670
     18 O11        11.6540  -19.0060   -8.9810 O.3     1  MOL1       -0.4800
     19 C12        10.5680  -18.1470   -8.7900 C.ar    1  MOL1        0.1660
     20 C13         9.3460  -18.3520   -9.4700 C.ar    1  MOL1        0.0120
     21 C21         8.2560  -17.5120   -9.1890 C.ar    1  MOL1       -0.0540
     22 C22         8.3900  -16.4570   -8.2860 C.ar    1  MOL1       -0.0580
     23 C23         9.6120  -16.2250   -7.6540 C.ar    1  MOL1       -0.0160
     24 C24        10.7120  -17.0660   -7.9050 C.ar    1  MOL1        0.1610
     25 C14         9.1790  -19.4520  -10.4950 C.3     1  MOL1        0.0280
     26 N15         8.2850  -20.5080   -9.9770 N.3     1  MOL1       -0.2870
     27 C16         9.0370  -21.7150   -9.5920 C.3     1  MOL1        0.0640
     28 C17         8.4010  -22.5490  -10.6860 C.3     1  MOL1        0.2720
     29 F18         7.5770  -23.5540  -10.2100 F       1  MOL1       -0.2040
     30 F19         9.2940  -22.9680  -11.6590 F       1  MOL1       -0.2040
     31 C20         7.6550  -21.2830  -11.0590 C.3     1  MOL1        0.0640
     32 O25        11.9570  -16.8670   -7.2920 O.3     1  MOL1       -0.4930
     33 C26        12.2710  -15.7670   -6.4440 C.3     1  MOL1        0.0780
@<TRIPOS>BOND
     1    30    28    1
     2    31    28    1
     3    31    26    1
     4    28    29    1
     5    28    27    1
     6    25    26    1
     7    25    20    1
     8    10    11    1
     9    26    27    1
    10    11    12   am
    11    20    21   ar
    12    20    19   ar
    13    21    22   ar
    14    12    13    2
    15    12     9    1
    16    18    19    1
    17    18    17    1
    18    19    24   ar
    19     9     8    1
    20    22    23   ar
    21    17    15    1
    22    24    23   ar
    23    24    32    1
    24    15    14   am
    25    15    16    2
    26    14     8    1
    27     8     1    1
    28    32    33    1
    29     1     7   ar
    30     1     2   ar
    31     7     5   ar
    32     2     3   ar
    33     5     4   ar
    34     5     6    1
    35     3     4   ar
