@<TRIPOS>MOLECULE
L3024_0_out.pdbqt
 33 35 0 0 0
SMALL
GASTEIGER

@<TRIPOS>ATOM
      1 C27        15.7440  -17.7920   -3.2270 C.ar    1  MOL1       -0.0240
      2 C28        14.9520  -16.7500   -2.7110 C.ar    1  MOL1       -0.0570
      3 C29        15.4110  -15.4290   -2.7460 C.ar    1  MOL1       -0.0610
      4 C30        16.6630  -15.1360   -3.2930 C.ar    1  MOL1       -0.0480
      5 C31        17.4590  -16.1630   -3.8130 C.ar    1  MOL1        0.0180
      6 Br32       19.1630  -15.7580   -4.5820 Br      1  MOL1       -0.0510
      7 C33        17.0060  -17.4850   -3.7750 C.ar    1  MOL1       -0.0430
      8  C6        15.2710  -19.2260   -3.1200 C.3     1  MOL1        0.0630
      9  C5        15.8880  -19.8930   -1.8770 C.3     1  MOL1        0.0510
     10  C1        13.4270  -21.5350    0.6570 C.3     1  MOL1        0.0060
     11  N2        14.3990  -21.3490   -0.4100 N.am    1  MOL1       -0.3590
     12  C3        14.8760  -20.0510   -0.7790 C.2     1  MOL1        0.2220
     13  O4        14.4510  -19.0270   -0.1780 O.2     1  MOL1       -0.2750
     14  N7        15.6250  -19.9700   -4.3340 N.am    1  MOL1       -0.3460
     15  C8        14.7260  -20.8830   -4.9660 C.2     1  MOL1        0.2580
     16  O9        13.5820  -21.0870   -4.4800 O.2     1  MOL1       -0.2710
     17 C10        15.1300  -21.5980   -6.2210 C.3     1  MOL1        0.1670
     18 O11        14.7110  -20.8640   -7.3690 O.3     1  MOL1       -0.4800
     19 C12        13.3910  -20.4370   -7.5360 C.ar    1  MOL1        0.1660
     20 C13        13.0360  -19.0780   -7.3700 C.ar    1  MOL1        0.0120
     21 C21        11.7130  -18.6800   -7.6250 C.ar    1  MOL1       -0.0540
     22 C22        10.7490  -19.6190   -7.9900 C.ar    1  MOL1       -0.0580
     23 C23        11.0900  -20.9670   -8.1030 C.ar    1  MOL1       -0.0160
     24 C24        12.4130  -21.3870   -7.8730 C.ar    1  MOL1        0.1610
     25 C14        14.0420  -18.0410   -6.9240 C.3     1  MOL1        0.0280
     26 N15        13.5870  -16.6860   -7.3000 N.3     1  MOL1       -0.2870
     27 C16        14.5580  -16.0130   -8.1800 C.3     1  MOL1        0.0640
     28 C17        14.8850  -14.9620   -7.1370 C.3     1  MOL1        0.2720
     29 F18        14.4810  -13.6860   -7.4890 F       1  MOL1       -0.2040
     30 F19        16.1860  -15.0290   -6.6670 F       1  MOL1       -0.2040
     31 C20        13.8880  -15.6900   -6.2570 C.3     1  MOL1        0.0640
     32 O25        12.7970  -22.7320   -7.9760 O.3     1  MOL1       -0.4930
     33 C26        12.3160  -23.7740   -7.1340 C.3     1  MOL1        0.0780
@<TRIPOS>BOND
     1    27    26    1
     2    27    28    1
     3    23    22   ar
     4    23    24   ar
     5    22    21   ar
     6    32    24    1
     7    32    33    1
     8    24    19   ar
     9    21    20   ar
    10    19    20   ar
    11    19    18    1
    12    29    28    1
    13    20    25    1
    14    18    17    1
    15    26    25    1
    16    26    31    1
    17    28    30    1
    18    28    31    1
    19    17    15    1
    20    15    16    2
    21    15    14   am
    22     6     5    1
    23    14     8    1
    24     5     7   ar
    25     5     4   ar
    26     7     1   ar
    27     4     3   ar
    28     1     8    1
    29     1     2   ar
    30     8     9    1
    31     3     2   ar
    32     9    12    1
    33    12    11   am
    34    12    13    2
    35    11    10    1
