@<TRIPOS>MOLECULE
L3024_0_out.pdbqt
 33 35 0 0 0
SMALL
GASTEIGER

@<TRIPOS>ATOM
      1 C27         7.3830  -19.4900   -8.5420 C.ar    1  MOL1       -0.0240
      2 C28         6.5480  -20.5960   -8.3040 C.ar    1  MOL1       -0.0570
      3 C29         5.2590  -20.4130   -7.7910 C.ar    1  MOL1       -0.0610
      4 C30         4.7920  -19.1260   -7.5120 C.ar    1  MOL1       -0.0480
      5 C31         5.6110  -18.0160   -7.7470 C.ar    1  MOL1        0.0180
      6 Br32        4.9630  -16.2530   -7.3850 Br      1  MOL1       -0.0510
      7 C33         6.9020  -18.1960   -8.2540 C.ar    1  MOL1       -0.0430
      8  C6         8.8000  -19.7010   -9.0270 C.3     1  MOL1        0.0630
      9  C5         9.3240  -21.0670   -8.5460 C.3     1  MOL1        0.0510
     10  C1        10.4010  -24.2160  -10.5700 C.3     1  MOL1        0.0060
     11  N2        10.1410  -23.2940   -9.4740 N.am    1  MOL1       -0.3590
     12  C3         9.5910  -21.9910   -9.6990 C.2     1  MOL1        0.2220
     13  O4         9.3240  -21.6110  -10.8720 O.2     1  MOL1       -0.2750
     14  N7         9.6680  -18.6190   -8.5510 N.am    1  MOL1       -0.3460
     15  C8        10.9030  -18.2850   -9.1880 C.2     1  MOL1        0.2580
     16  O9        11.2940  -18.9350  -10.1950 O.2     1  MOL1       -0.2710
     17 C10        11.7390  -17.1510   -8.6760 C.3     1  MOL1        0.1670
     18 O11        12.7710  -17.6390   -7.8220 O.3     1  MOL1       -0.4800
     19 C12        14.1220  -17.3850   -8.0720 C.ar    1  MOL1        0.1660
     20 C13        14.9670  -18.3850   -8.6060 C.ar    1  MOL1        0.0120
     21 C21        16.2990  -18.0630   -8.9160 C.ar    1  MOL1       -0.0540
     22 C22        16.7980  -16.7860   -8.6570 C.ar    1  MOL1       -0.0580
     23 C23        15.9760  -15.8160   -8.0830 C.ar    1  MOL1       -0.0160
     24 C24        14.6330  -16.1090   -7.7820 C.ar    1  MOL1        0.1610
     25 C14        14.4770  -19.7950   -8.8520 C.3     1  MOL1        0.0280
     26 N15        14.2950  -20.5080   -7.5710 N.3     1  MOL1       -0.2870
     27 C16        14.9430  -21.8300   -7.5900 C.3     1  MOL1        0.0640
     28 C17        13.6190  -22.5620   -7.4960 C.3     1  MOL1        0.2720
     29 F18        13.4480  -23.2510   -6.3080 F       1  MOL1       -0.2040
     30 F19        13.3110  -23.3050   -8.6240 F       1  MOL1       -0.2040
     31 C20        12.9880  -21.1830   -7.4920 C.3     1  MOL1        0.0640
     32 O25        13.7740  -15.1630   -7.2040 O.3     1  MOL1       -0.4930
     33 C26        13.5950  -14.9870   -5.8030 C.3     1  MOL1        0.0780
@<TRIPOS>BOND
     1    13    12    2
     2    10    11    1
     3    16    15    2
     4    12    11   am
     5    12     9    1
     6    15    17    1
     7    15    14   am
     8     8    14    1
     9     8     9    1
    10     8     1    1
    11    21    22   ar
    12    21    20   ar
    13    25    20    1
    14    25    26    1
    15    17    18    1
    16    22    23   ar
    17    30    28    1
    18    20    19   ar
    19     1     2   ar
    20     1     7   ar
    21     2     3   ar
    22     7     5   ar
    23    23    24   ar
    24    19    18    1
    25    19    24   ar
    26     3     4   ar
    27    24    32    1
    28     5     4   ar
    29     5     6    1
    30    27    26    1
    31    27    28    1
    32    26    31    1
    33    28    31    1
    34    28    29    1
    35    32    33    1
