@<TRIPOS>MOLECULE
L3024_0_out.pdbqt
 33 35 0 0 0
SMALL
GASTEIGER

@<TRIPOS>ATOM
      1 C27         8.4390  -17.5310   -9.1470 C.ar    1  MOL1       -0.0240
      2 C28         7.6990  -17.3460   -7.9650 C.ar    1  MOL1       -0.0570
      3 C29         6.4610  -16.6940   -8.0000 C.ar    1  MOL1       -0.0610
      4 C30         5.9510  -16.2220   -9.2120 C.ar    1  MOL1       -0.0480
      5 C31         6.6750  -16.4030  -10.3960 C.ar    1  MOL1        0.0180
      6 Br32        5.9660  -15.7760  -12.0580 Br      1  MOL1       -0.0510
      7 C33         7.9150  -17.0490  -10.3640 C.ar    1  MOL1       -0.0430
      8  C6         9.8090  -18.1710   -9.0900 C.3     1  MOL1        0.0630
      9  C5         9.7090  -19.5760   -8.4700 C.3     1  MOL1        0.0510
     10  C1         8.2800  -22.8020  -10.1220 C.3     1  MOL1        0.0060
     11  N2         8.6330  -21.7850   -9.1410 N.am    1  MOL1       -0.3590
     12  C3         9.3680  -20.6110   -9.5030 C.2     1  MOL1        0.2220
     13  O4         9.7340  -20.4370  -10.6980 O.2     1  MOL1       -0.2750
     14  N7        10.7310  -17.3310   -8.3190 N.am    1  MOL1       -0.3460
     15  C8        12.1480  -17.3810   -8.4960 C.2     1  MOL1        0.2580
     16  O9        12.6560  -18.1760   -9.3310 O.2     1  MOL1       -0.2710
     17 C10        13.0440  -16.4810   -7.6990 C.3     1  MOL1        0.1670
     18 O11        13.6990  -17.2150   -6.6670 O.3     1  MOL1       -0.4800
     19 C12        14.8930  -16.7750   -6.0880 C.ar    1  MOL1        0.1660
     20 C13        16.1440  -17.2580   -6.5360 C.ar    1  MOL1        0.0120
     21 C21        17.3210  -16.7300   -5.9800 C.ar    1  MOL1       -0.0540
     22 C22        17.2590  -15.7770   -4.9640 C.ar    1  MOL1       -0.0580
     23 C23        16.0230  -15.3390   -4.4890 C.ar    1  MOL1       -0.0160
     24 C24        14.8300  -15.8380   -5.0440 C.ar    1  MOL1        0.1610
     25 C14        16.2500  -18.3300   -7.5980 C.3     1  MOL1        0.0280
     26 N15        16.1630  -17.7310   -8.9460 N.3     1  MOL1       -0.2870
     27 C16        16.7840  -18.5960   -9.9640 C.3     1  MOL1        0.0640
     28 C17        17.8880  -17.5960  -10.2460 C.3     1  MOL1        0.2720
     29 F18        17.8270  -17.0450  -11.5140 F       1  MOL1       -0.2040
     30 F19        19.1490  -18.0420   -9.8880 F       1  MOL1       -0.2040
     31 C20        17.2270  -16.7400   -9.1830 C.3     1  MOL1        0.0640
     32 O25        13.5680  -15.4250   -4.5940 O.3     1  MOL1       -0.4930
     33 C26        13.3340  -14.7380   -3.3690 C.3     1  MOL1        0.0780
@<TRIPOS>BOND
     1     6     5    1
     2    29    28    1
     3    13    12    2
     4     5     7   ar
     5     5     4   ar
     6     7     1   ar
     7    28    27    1
     8    28    30    1
     9    28    31    1
    10    10    11    1
    11    27    26    1
    12    12    11   am
    13    12     9    1
    14    16    15    2
    15     4     3   ar
    16    31    26    1
    17     1     8    1
    18     1     2   ar
    19     8     9    1
    20     8    14    1
    21    26    25    1
    22    15    14   am
    23    15    17    1
    24     3     2   ar
    25    17    18    1
    26    25    20    1
    27    18    19    1
    28    20    19   ar
    29    20    21   ar
    30    19    24   ar
    31    21    22   ar
    32    24    32    1
    33    24    23   ar
    34    22    23   ar
    35    32    33    1
