@<TRIPOS>MOLECULE
L3024_0_out.pdbqt
 33 35 0 0 0
SMALL
GASTEIGER

@<TRIPOS>ATOM
      1 C27         3.6340  -21.8470   -9.3710 C.ar    1  MOL1       -0.0240
      2 C28         3.2910  -22.8130  -10.3350 C.ar    1  MOL1       -0.0570
      3 C29         1.9560  -23.1950  -10.5110 C.ar    1  MOL1       -0.0610
      4 C30         0.9530  -22.6190   -9.7270 C.ar    1  MOL1       -0.0480
      5 C31         1.2800  -21.6550   -8.7670 C.ar    1  MOL1        0.0180
      6 Br32       -0.0970  -20.8500   -7.7100 Br      1  MOL1       -0.0510
      7 C33         2.6130  -21.2740   -8.5850 C.ar    1  MOL1       -0.0430
      8  C6         5.0860  -21.4930   -9.1380 C.3     1  MOL1        0.0630
      9  C5         5.2880  -21.0270   -7.6850 C.3     1  MOL1        0.0510
     10  C1         4.9410  -17.1730   -7.2370 C.3     1  MOL1        0.0060
     11  N2         4.6320  -18.5930   -7.3190 N.am    1  MOL1       -0.3590
     12  C3         5.6370  -19.5680   -7.6180 C.2     1  MOL1        0.2220
     13  O4         6.8270  -19.2060   -7.8260 O.2     1  MOL1       -0.2750
     14  N7         5.5130  -20.4510  -10.0780 N.am    1  MOL1       -0.3460
     15  C8         6.7530  -20.5150  -10.7860 C.2     1  MOL1        0.2580
     16  O9         7.5360  -21.4860  -10.6080 O.2     1  MOL1       -0.2710
     17 C10         7.1290  -19.4360  -11.7560 C.3     1  MOL1        0.1670
     18 O11         8.4030  -18.8880  -11.4240 O.3     1  MOL1       -0.4800
     19 C12         8.5730  -17.9990  -10.3600 C.ar    1  MOL1        0.1660
     20 C13         7.7520  -16.8560  -10.2240 C.ar    1  MOL1        0.0120
     21 C21         7.9060  -16.0320   -9.0960 C.ar    1  MOL1       -0.0540
     22 C22         8.8890  -16.3090   -8.1460 C.ar    1  MOL1       -0.0580
     23 C23         9.7310  -17.4090   -8.3080 C.ar    1  MOL1       -0.0160
     24 C24         9.5830  -18.2600   -9.4190 C.ar    1  MOL1        0.1610
     25 C14         6.7120  -16.4940  -11.2610 C.3     1  MOL1        0.0280
     26 N15         6.2310  -15.1130  -11.0490 N.3     1  MOL1       -0.2870
     27 C16         4.9050  -15.0940  -10.4080 C.3     1  MOL1        0.0640
     28 C17         4.2410  -14.4970  -11.6330 C.3     1  MOL1        0.2720
     29 F18         3.7680  -13.2110  -11.4380 F       1  MOL1       -0.2040
     30 F19         3.3290  -15.3440  -12.2420 F       1  MOL1       -0.2040
     31 C20         5.6200  -14.5450  -12.2630 C.3     1  MOL1        0.0640
     32 O25        10.4100  -19.3750   -9.6200 O.3     1  MOL1       -0.4930
     33 C26        10.5870  -20.4260   -8.6770 C.3     1  MOL1        0.0780
@<TRIPOS>BOND
     1    31    28    1
     2    31    26    1
     3    30    28    1
     4    17    18    1
     5    17    15    1
     6    28    29    1
     7    28    27    1
     8    18    19    1
     9    25    26    1
    10    25    20    1
    11    26    27    1
    12    15    16    2
    13    15    14   am
    14     3     2   ar
    15     3     4   ar
    16    19    20   ar
    17    19    24   ar
    18     2     1   ar
    19    20    21   ar
    20    14     8    1
    21     4     5   ar
    22    32    24    1
    23    32    33    1
    24    24    23   ar
    25     1     8    1
    26     1     7   ar
    27     8     9    1
    28    21    22   ar
    29     5     7   ar
    30     5     6    1
    31    23    22   ar
    32    13    12    2
    33     9    12    1
    34    12    11   am
    35    11    10    1
