@<TRIPOS>MOLECULE
L3024_0_out.pdbqt
 33 35 0 0 0
SMALL
GASTEIGER

@<TRIPOS>ATOM
      1 C27         8.3320  -18.1100   -9.2480 C.ar    1  MOL1       -0.0240
      2 C28         8.2270  -17.5250  -10.5230 C.ar    1  MOL1       -0.0570
      3 C29         7.2130  -16.6010  -10.7960 C.ar    1  MOL1       -0.0610
      4 C30         6.2960  -16.2520   -9.8010 C.ar    1  MOL1       -0.0480
      5 C31         6.3910  -16.8240   -8.5280 C.ar    1  MOL1        0.0180
      6 Br32        5.1480  -16.3290   -7.1600 Br      1  MOL1       -0.0510
      7 C33         7.4000  -17.7520   -8.2530 C.ar    1  MOL1       -0.0430
      8  C6         9.3860  -19.1630   -8.9820 C.3     1  MOL1        0.0630
      9  C5         8.7700  -20.3420   -8.2080 C.3     1  MOL1        0.0510
     10  C1         6.7580  -22.6420  -10.6240 C.3     1  MOL1        0.0060
     11  N2         7.1240  -21.5570   -9.7240 N.am    1  MOL1       -0.3590
     12  C3         8.4210  -21.4800   -9.1230 C.2     1  MOL1        0.2220
     13  O4         9.2820  -22.3690   -9.3620 O.2     1  MOL1       -0.2750
     14  N7        10.5070  -18.5830   -8.2350 N.am    1  MOL1       -0.3460
     15  C8        11.7750  -19.2330   -8.1230 C.2     1  MOL1        0.2580
     16  O9        11.9660  -20.3520   -8.6680 O.2     1  MOL1       -0.2710
     17 C10        12.8960  -18.5830   -7.3680 C.3     1  MOL1        0.1670
     18 O11        14.1410  -18.8230   -8.0190 O.3     1  MOL1       -0.4800
     19 C12        15.3550  -18.8100   -7.3260 C.ar    1  MOL1        0.1660
     20 C13        16.1720  -17.6570   -7.3040 C.ar    1  MOL1        0.0120
     21 C21        17.3440  -17.6620   -6.5300 C.ar    1  MOL1       -0.0540
     22 C22        17.7250  -18.8060   -5.8290 C.ar    1  MOL1       -0.0580
     23 C23        16.9420  -19.9600   -5.8920 C.ar    1  MOL1       -0.0160
     24 C24        15.7530  -19.9720   -6.6450 C.ar    1  MOL1        0.1610
     25 C14        15.8200  -16.4160   -8.0950 C.3     1  MOL1        0.0280
     26 N15        15.6570  -15.2580   -7.1910 N.3     1  MOL1       -0.2870
     27 C16        14.8060  -15.5890   -6.0360 C.3     1  MOL1        0.0640
     28 C17        13.7120  -14.6360   -6.4750 C.3     1  MOL1        0.2720
     29 F18        13.5380  -13.5590   -5.6240 F       1  MOL1       -0.2040
     30 F19        12.5320  -15.2680   -6.8300 F       1  MOL1       -0.2040
     31 C20        14.6110  -14.3320   -7.6580 C.3     1  MOL1        0.0640
     32 O25        14.9400  -21.1110   -6.7350 O.3     1  MOL1       -0.4930
     33 C26        15.1020  -22.1420   -7.7020 C.3     1  MOL1        0.0780
@<TRIPOS>BOND
     1     3     2   ar
     2     3     4   ar
     3    10    11    1
     4     2     1   ar
     5     4     5   ar
     6    11    12   am
     7    13    12    2
     8     1     8    1
     9     1     7   ar
    10    12     9    1
    11     8    14    1
    12     8     9    1
    13    16    15    2
    14     5     7   ar
    15     5     6    1
    16    14    15   am
    17    15    17    1
    18    25    20    1
    19    25    26    1
    20    18    17    1
    21    18    19    1
    22    33    32    1
    23    31    26    1
    24    31    28    1
    25    19    20   ar
    26    19    24   ar
    27    20    21   ar
    28    26    27    1
    29    30    28    1
    30    32    24    1
    31    24    23   ar
    32    21    22   ar
    33    28    27    1
    34    28    29    1
    35    23    22   ar
