@<TRIPOS>MOLECULE
L3024_0_out.pdbqt
 33 35 0 0 0
SMALL
GASTEIGER

@<TRIPOS>ATOM
      1 C27         8.5310  -17.5880   -9.2650 C.ar    1  MOL1       -0.0240
      2 C28         8.1760  -17.2090  -10.5720 C.ar    1  MOL1       -0.0570
      3 C29         6.9570  -16.5660  -10.8160 C.ar    1  MOL1       -0.0610
      4 C30         6.0840  -16.2960   -9.7590 C.ar    1  MOL1       -0.0480
      5 C31         6.4260  -16.6650   -8.4540 C.ar    1  MOL1        0.0180
      6 Br32        5.2390  -16.2750   -7.0050 Br      1  MOL1       -0.0510
      7 C33         7.6410  -17.3130   -8.2070 C.ar    1  MOL1       -0.0430
      8  C6         9.8170  -18.3480   -9.0200 C.3     1  MOL1        0.0630
      9  C5         9.5440  -19.5750   -8.1310 C.3     1  MOL1        0.0510
     10  C1         9.0780  -22.3210  -10.8550 C.3     1  MOL1        0.0060
     11  N2         9.6230  -21.2190  -10.0750 N.am    1  MOL1       -0.3590
     12  C3         8.9500  -20.7050   -8.9210 C.2     1  MOL1        0.2220
     13  O4         7.8500  -21.2040   -8.5560 O.2     1  MOL1       -0.2750
     14  N7        10.8150  -17.4710   -8.3980 N.am    1  MOL1       -0.3460
     15  C8        12.2120  -17.5740   -8.6800 C.2     1  MOL1        0.2580
     16  O9        12.6350  -18.4480   -9.4830 O.2     1  MOL1       -0.2710
     17 C10        13.1870  -16.6350   -8.0360 C.3     1  MOL1        0.1670
     18 O11        13.6840  -17.1890   -6.8200 O.3     1  MOL1       -0.4800
     19 C12        15.0100  -17.0150   -6.4140 C.ar    1  MOL1        0.1660
     20 C13        16.0150  -17.9400   -6.7800 C.ar    1  MOL1        0.0120
     21 C21        17.3470  -17.6840   -6.4170 C.ar    1  MOL1       -0.0540
     22 C22        17.6720  -16.5560   -5.6630 C.ar    1  MOL1       -0.0580
     23 C23        16.6720  -15.6710   -5.2600 C.ar    1  MOL1       -0.0160
     24 C24        15.3320  -15.8960   -5.6290 C.ar    1  MOL1        0.1610
     25 C14        15.6930  -19.2010   -7.5520 C.3     1  MOL1        0.0280
     26 N15        15.2260  -20.2610   -6.6360 N.3     1  MOL1       -0.2870
     27 C16        16.1110  -21.4380   -6.6740 C.3     1  MOL1        0.0640
     28 C17        15.0340  -22.3190   -7.2770 C.3     1  MOL1        0.2720
     29 F18        14.6050  -23.3290   -6.4340 F       1  MOL1       -0.2040
     30 F19        15.3200  -22.7460   -8.5640 F       1  MOL1       -0.2040
     31 C20        14.1590  -21.0820   -7.2340 C.3     1  MOL1        0.0640
     32 O25        14.2980  -15.0310   -5.2430 O.3     1  MOL1       -0.4930
     33 C26        14.0670  -14.5960   -3.9070 C.3     1  MOL1        0.0780
@<TRIPOS>BOND
     1    10    11    1
     2     3     2   ar
     3     3     4   ar
     4     2     1   ar
     5    11    12   am
     6     4     5   ar
     7    16    15    2
     8     1     8    1
     9     1     7   ar
    10     8    14    1
    11     8     9    1
    12    12    13    2
    13    12     9    1
    14    15    14   am
    15    15    17    1
    16    30    28    1
    17     5     7   ar
    18     5     6    1
    19    17    18    1
    20    25    20    1
    21    25    26    1
    22    28    31    1
    23    28    27    1
    24    28    29    1
    25    31    26    1
    26    18    19    1
    27    20    21   ar
    28    20    19   ar
    29    27    26    1
    30    21    22   ar
    31    19    24   ar
    32    22    23   ar
    33    24    23   ar
    34    24    32    1
    35    32    33    1
