@<TRIPOS>MOLECULE
L3024_0_out.pdbqt
 33 35 0 0 0
SMALL
GASTEIGER

@<TRIPOS>ATOM
      1 C27         9.0140  -18.9270   -9.8340 C.ar    1  MOL1       -0.0240
      2 C28         9.4380  -19.0650  -11.1680 C.ar    1  MOL1       -0.0570
      3 C29        10.7700  -18.8150  -11.5160 C.ar    1  MOL1       -0.0610
      4 C30        11.6890  -18.4250  -10.5390 C.ar    1  MOL1       -0.0480
      5 C31        11.2810  -18.2870   -9.2070 C.ar    1  MOL1        0.0180
      6 Br32       12.5450  -17.7750   -7.8660 Br      1  MOL1       -0.0510
      7 C33         9.9490  -18.5310   -8.8560 C.ar    1  MOL1       -0.0430
      8  C6         7.5570  -19.1290   -9.4780 C.3     1  MOL1        0.0630
      9  C5         7.1260  -20.5680   -9.8130 C.3     1  MOL1        0.0510
     10  C1         4.6820  -21.1680   -6.8410 C.3     1  MOL1        0.0060
     11  N2         5.8540  -20.7950   -7.6190 N.am    1  MOL1       -0.3590
     12  C3         5.9060  -20.9720   -9.0380 C.2     1  MOL1        0.2220
     13  O4         4.9200  -21.4690   -9.6500 O.2     1  MOL1       -0.2750
     14  N7         6.7200  -18.1600  -10.1950 N.am    1  MOL1       -0.3460
     15  C8         6.5760  -16.8030   -9.7670 C.2     1  MOL1        0.2580
     16  O9         7.1710  -16.3970   -8.7340 O.2     1  MOL1       -0.2710
     17 C10         5.7290  -15.8470  -10.5510 C.3     1  MOL1        0.1670
     18 O11         5.2390  -14.8080   -9.7080 O.3     1  MOL1       -0.4800
     19 C12         3.8950  -14.7280   -9.3350 C.ar    1  MOL1        0.1660
     20 C13         2.9520  -14.0470  -10.1390 C.ar    1  MOL1        0.0120
     21 C21         1.5970  -14.0600   -9.7660 C.ar    1  MOL1       -0.0540
     22 C22         1.1920  -14.6930   -8.5910 C.ar    1  MOL1       -0.0580
     23 C23         2.1310  -15.3210   -7.7730 C.ar    1  MOL1       -0.0160
     24 C24         3.4910  -15.3390   -8.1360 C.ar    1  MOL1        0.1610
     25 C14         3.3610  -13.3040  -11.3910 C.3     1  MOL1        0.0280
     26 N15         3.3360  -11.8460  -11.1560 N.3     1  MOL1       -0.2870
     27 C16         1.9780  -11.2960  -11.3040 C.3     1  MOL1        0.0640
     28 C17         2.3590  -10.4870  -12.5280 C.3     1  MOL1        0.2720
     29 F18         2.3190   -9.1190  -12.3240 F       1  MOL1       -0.2040
     30 F19         1.7270  -10.9000  -13.6890 F       1  MOL1       -0.2040
     31 C20         3.7420  -11.0840  -12.3500 C.3     1  MOL1        0.0640
     32 O25         4.4670  -15.9580   -7.3410 O.3     1  MOL1       -0.4930
     33 C26         4.7860  -15.5690   -6.0100 C.3     1  MOL1        0.0780
@<TRIPOS>BOND
     1    30    28    1
     2    28    31    1
     3    28    29    1
     4    28    27    1
     5    31    26    1
     6     3     2   ar
     7     3     4   ar
     8    25    26    1
     9    25    20    1
    10    27    26    1
    11     2     1   ar
    12    17    15    1
    13    17    18    1
    14     4     5   ar
    15    14    15   am
    16    14     8    1
    17    20    21   ar
    18    20    19   ar
    19     1     8    1
    20     1     7   ar
    21     9     8    1
    22     9    12    1
    23    15    16    2
    24    21    22   ar
    25    18    19    1
    26    13    12    2
    27    19    24   ar
    28     5     7   ar
    29     5     6    1
    30    12    11   am
    31    22    23   ar
    32    24    23   ar
    33    24    32    1
    34    11    10    1
    35    32    33    1
