@<TRIPOS>MOLECULE
L3024_0_out.pdbqt
 33 35 0 0 0
SMALL
GASTEIGER

@<TRIPOS>ATOM
      1 C27         9.5070  -18.7520   -8.4070 C.ar    1  MOL1       -0.0240
      2 C28         8.6360  -19.8390   -8.2090 C.ar    1  MOL1       -0.0570
      3 C29         7.3120  -19.7760   -8.6580 C.ar    1  MOL1       -0.0610
      4 C30         6.8460  -18.6290   -9.3070 C.ar    1  MOL1       -0.0480
      5 C31         7.7030  -17.5420   -9.5130 C.ar    1  MOL1        0.0180
      6 Br32        7.0690  -15.9820  -10.4210 Br      1  MOL1       -0.0510
      7 C33         9.0250  -17.6000   -9.0610 C.ar    1  MOL1       -0.0430
      8  C6        10.9150  -18.8000   -7.8550 C.3     1  MOL1        0.0630
      9  C5        11.0910  -20.0450   -6.9660 C.3     1  MOL1        0.0510
     10  C1        14.5540  -21.4130   -8.1080 C.3     1  MOL1        0.0060
     11  N2        13.5090  -20.5400   -7.5950 N.am    1  MOL1       -0.3590
     12  C3        12.1450  -20.9660   -7.5100 C.2     1  MOL1        0.2220
     13  O4        11.8180  -22.1230   -7.8910 O.2     1  MOL1       -0.2750
     14  N7        11.2060  -17.5790   -7.0970 N.am    1  MOL1       -0.3460
     15  C8        12.4200  -16.8420   -7.2600 C.2     1  MOL1        0.2580
     16  O9        13.2980  -17.2380   -8.0720 O.2     1  MOL1       -0.2710
     17 C10        12.6550  -15.5850   -6.4780 C.3     1  MOL1        0.1670
     18 O11        13.8860  -14.9800   -6.8650 O.3     1  MOL1       -0.4800
     19 C12        15.0590  -15.1450   -6.1230 C.ar    1  MOL1        0.1660
     20 C13        16.2740  -15.5100   -6.7460 C.ar    1  MOL1        0.0120
     21 C21        17.4440  -15.5870   -5.9740 C.ar    1  MOL1       -0.0540
     22 C22        17.4020  -15.3540   -4.5990 C.ar    1  MOL1       -0.0580
     23 C23        16.1930  -15.0430   -3.9780 C.ar    1  MOL1       -0.0160
     24 C24        15.0110  -14.9400   -4.7340 C.ar    1  MOL1        0.1610
     25 C14        16.3480  -15.8230   -8.2250 C.3     1  MOL1        0.0280
     26 N15        17.2430  -16.9730   -8.4640 N.3     1  MOL1       -0.2870
     27 C16        17.2430  -17.3730   -9.8820 C.3     1  MOL1        0.0640
     28 C17        16.5940  -18.7100   -9.5800 C.3     1  MOL1        0.2720
     29 F18        17.4190  -19.7950   -9.8210 F       1  MOL1       -0.2040
     30 F19        15.3210  -18.8440  -10.1090 F       1  MOL1       -0.2040
     31 C20        16.6000  -18.2560   -8.1330 C.3     1  MOL1        0.0640
     32 O25        13.7750  -14.6300   -4.1470 O.3     1  MOL1       -0.4930
     33 C26        13.6140  -13.8110   -2.9940 C.3     1  MOL1        0.0780
@<TRIPOS>BOND
     1     6     5    1
     2    30    28    1
     3    27    28    1
     4    27    26    1
     5    29    28    1
     6    28    31    1
     7     5     4   ar
     8     5     7   ar
     9     4     3   ar
    10     7     1   ar
    11     3     2   ar
    12    26    25    1
    13    26    31    1
    14     1     2   ar
    15     1     8    1
    16    25    20    1
    17    10    11    1
    18    16    15    2
    19    13    12    2
    20     8    14    1
    21     8     9    1
    22    11    12   am
    23    12     9    1
    24    15    14   am
    25    15    17    1
    26    18    17    1
    27    18    19    1
    28    20    19   ar
    29    20    21   ar
    30    19    24   ar
    31    21    22   ar
    32    24    32    1
    33    24    23   ar
    34    22    23   ar
    35    32    33    1
