@<TRIPOS>MOLECULE
L3024_0_out.pdbqt
 33 35 0 0 0
SMALL
GASTEIGER

@<TRIPOS>ATOM
      1 C27         8.6470  -18.6450   -9.6840 C.ar    1  MOL1       -0.0240
      2 C28         8.6390  -17.7280   -8.6170 C.ar    1  MOL1       -0.0570
      3 C29         7.9890  -16.4960   -8.7480 C.ar    1  MOL1       -0.0610
      4 C30         7.3420  -16.1680   -9.9420 C.ar    1  MOL1       -0.0480
      5 C31         7.3390  -17.0730  -11.0100 C.ar    1  MOL1        0.0180
      6 Br32        6.4330  -16.6320  -12.6360 Br      1  MOL1       -0.0510
      7 C33         7.9920  -18.3030  -10.8840 C.ar    1  MOL1       -0.0430
      8  C6         9.4140  -19.9440   -9.5600 C.3     1  MOL1        0.0630
      9  C5         8.6550  -20.9190   -8.6410 C.3     1  MOL1        0.0510
     10  C1         5.2080  -21.8900  -10.1740 C.3     1  MOL1        0.0060
     11  N2         6.2530  -21.1860   -9.4450 N.am    1  MOL1       -0.3590
     12  C3         7.5980  -21.6740   -9.3930 C.2     1  MOL1        0.2220
     13  O4         7.9050  -22.7450   -9.9850 O.2     1  MOL1       -0.2750
     14  N7        10.7620  -19.6910   -9.0420 N.am    1  MOL1       -0.3460
     15  C8        11.7670  -19.0220   -9.8070 C.2     1  MOL1        0.2580
     16  O9        11.5180  -18.6320  -10.9790 O.2     1  MOL1       -0.2710
     17 C10        13.1220  -18.7650   -9.2200 C.3     1  MOL1        0.1670
     18 O11        13.1640  -19.1860   -7.8590 O.3     1  MOL1       -0.4800
     19 C12        14.3340  -19.6720   -7.2690 C.ar    1  MOL1        0.1660
     20 C13        15.4230  -18.8150   -6.9910 C.ar    1  MOL1        0.0120
     21 C21        16.5480  -19.3300   -6.3250 C.ar    1  MOL1       -0.0540
     22 C22        16.6120  -20.6810   -5.9850 C.ar    1  MOL1       -0.0580
     23 C23        15.5570  -21.5360   -6.3050 C.ar    1  MOL1       -0.0160
     24 C24        14.4110  -21.0390   -6.9530 C.ar    1  MOL1        0.1610
     25 C14        15.4120  -17.3570   -7.3930 C.3     1  MOL1        0.0280
     26 N15        14.6860  -16.5510   -6.3900 N.3     1  MOL1       -0.2870
     27 C16        13.5670  -15.8100   -6.9970 C.3     1  MOL1        0.0640
     28 C17        14.2150  -14.4660   -6.7270 C.3     1  MOL1        0.2720
     29 F18        13.5300  -13.6950   -5.8040 F       1  MOL1       -0.2040
     30 F19        14.5740  -13.7800   -7.8750 F       1  MOL1       -0.2040
     31 C20        15.3530  -15.2650   -6.1220 C.3     1  MOL1        0.0640
     32 O25        13.3300  -21.8640   -7.2930 O.3     1  MOL1       -0.4930
     33 C26        12.9840  -23.0630   -6.6070 C.3     1  MOL1        0.0780
@<TRIPOS>BOND
     1     6     5    1
     2     5     7   ar
     3     5     4   ar
     4    16    15    2
     5     7     1   ar
     6    10    11    1
     7    13    12    2
     8     4     3   ar
     9    15    17    1
    10    15    14   am
    11     1     8    1
    12     1     2   ar
    13     8    14    1
    14     8     9    1
    15    11    12   am
    16    12     9    1
    17    17    18    1
    18     3     2   ar
    19    30    28    1
    20    18    19    1
    21    25    20    1
    22    25    26    1
    23    32    24    1
    24    32    33    1
    25    19    20   ar
    26    19    24   ar
    27    27    28    1
    28    27    26    1
    29    20    21   ar
    30    24    23   ar
    31    28    31    1
    32    28    29    1
    33    26    31    1
    34    21    22   ar
    35    23    22   ar
