@<TRIPOS>MOLECULE
L3024_0_out.pdbqt
 33 35 0 0 0
SMALL
GASTEIGER

@<TRIPOS>ATOM
      1 C27         8.4220  -18.6590   -9.6480 C.ar    1  MOL1       -0.0240
      2 C28         8.1080  -17.8150   -8.5670 C.ar    1  MOL1       -0.0570
      3 C29         7.3580  -16.6520   -8.7720 C.ar    1  MOL1       -0.0610
      4 C30         6.9150  -16.3210  -10.0560 C.ar    1  MOL1       -0.0480
      5 C31         7.2180  -17.1530  -11.1390 C.ar    1  MOL1        0.0180
      6 Br32        6.5920  -16.7100  -12.8920 Br      1  MOL1       -0.0510
      7 C33         7.9720  -18.3140  -10.9380 C.ar    1  MOL1       -0.0430
      8  C6         9.2950  -19.8760   -9.4290 C.3     1  MOL1        0.0630
      9  C5         8.5390  -20.9240   -8.5910 C.3     1  MOL1        0.0510
     10  C1         5.0930  -21.8970  -10.1250 C.3     1  MOL1        0.0060
     11  N2         6.1240  -21.2350   -9.3380 N.am    1  MOL1       -0.3590
     12  C3         7.4980  -21.6330   -9.4070 C.2     1  MOL1        0.2220
     13  O4         7.8430  -22.5850  -10.1590 O.2     1  MOL1       -0.2750
     14  N7        10.5470  -19.4920   -8.7680 N.am    1  MOL1       -0.3460
     15  C8        11.6340  -18.8880   -9.4710 C.2     1  MOL1        0.2580
     16  O9        11.5490  -18.6740  -10.7100 O.2     1  MOL1       -0.2710
     17 C10        12.8820  -18.4900   -8.7420 C.3     1  MOL1        0.1670
     18 O11        12.9310  -19.1140   -7.4610 O.3     1  MOL1       -0.4800
     19 C12        14.1190  -19.6210   -6.9280 C.ar    1  MOL1        0.1660
     20 C13        14.9780  -18.8080   -6.1510 C.ar    1  MOL1        0.0120
     21 C21        16.1210  -19.3800   -5.5700 C.ar    1  MOL1       -0.0540
     22 C22        16.4350  -20.7210   -5.7930 C.ar    1  MOL1       -0.0580
     23 C23        15.6130  -21.5080   -6.6010 C.ar    1  MOL1       -0.0160
     24 C24        14.4510  -20.9620   -7.1780 C.ar    1  MOL1        0.1610
     25 C14        14.6990  -17.3380   -5.9310 C.3     1  MOL1        0.0280
     26 N15        15.8330  -16.5210   -6.4080 N.3     1  MOL1       -0.2870
     27 C16        15.5300  -15.0810   -6.3400 C.3     1  MOL1        0.0640
     28 C17        15.5660  -14.9290   -7.8480 C.3     1  MOL1        0.2720
     29 F18        16.6130  -14.1470   -8.3030 F       1  MOL1       -0.2040
     30 F19        14.3400  -14.6030   -8.4050 F       1  MOL1       -0.2040
     31 C20        15.8630  -16.4150   -7.8770 C.3     1  MOL1        0.0640
     32 O25        13.6000  -21.7180   -7.9970 O.3     1  MOL1       -0.4930
     33 C26        12.3830  -22.3160   -7.5600 C.3     1  MOL1        0.0780
@<TRIPOS>BOND
     1     6     5    1
     2     5     7   ar
     3     5     4   ar
     4     7     1   ar
     5    16    15    2
     6    13    12    2
     7    10    11    1
     8     4     3   ar
     9     1     8    1
    10     1     2   ar
    11    15    14   am
    12    15    17    1
    13     8    14    1
    14     8     9    1
    15    12    11   am
    16    12     9    1
    17     3     2   ar
    18    17    18    1
    19    30    28    1
    20    29    28    1
    21    32    33    1
    22    32    24    1
    23    31    28    1
    24    31    26    1
    25    28    27    1
    26    18    19    1
    27    24    19   ar
    28    24    23   ar
    29    19    20   ar
    30    23    22   ar
    31    26    27    1
    32    26    25    1
    33    20    25    1
    34    20    21   ar
    35    22    21   ar
