@<TRIPOS>MOLECULE
L3024_0_out.pdbqt
 33 35 0 0 0
SMALL
GASTEIGER

@<TRIPOS>ATOM
      1 C27         7.6540  -19.9380  -10.3010 C.ar    1  MOL1       -0.0240
      2 C28         6.3220  -20.3930  -10.2800 C.ar    1  MOL1       -0.0570
      3 C29         6.0410  -21.7610  -10.3660 C.ar    1  MOL1       -0.0610
      4 C30         7.0830  -22.6860  -10.4740 C.ar    1  MOL1       -0.0480
      5 C31         8.4110  -22.2470  -10.4920 C.ar    1  MOL1        0.0180
      6 Br32        9.8380  -23.5160  -10.6170 Br      1  MOL1       -0.0510
      7 C33         8.6970  -20.8800  -10.4110 C.ar    1  MOL1       -0.0430
      8  C6         7.9470  -18.4530  -10.2800 C.3     1  MOL1        0.0630
      9  C5         8.2880  -18.0030   -8.8490 C.3     1  MOL1        0.0510
     10  C1        12.1180  -18.0650   -9.5550 C.3     1  MOL1        0.0060
     11  N2        10.6760  -18.1730   -9.7180 N.am    1  MOL1       -0.3590
     12  C3         9.7710  -17.8910   -8.6450 C.2     1  MOL1        0.2220
     13  O4        10.2170  -17.5430   -7.5180 O.2     1  MOL1       -0.2750
     14  N7         6.7990  -17.7020  -10.7990 N.am    1  MOL1       -0.3460
     15  C8         6.7060  -16.2790  -10.7060 C.2     1  MOL1        0.2580
     16  O9         7.6250  -15.6170  -10.1540 O.2     1  MOL1       -0.2710
     17 C10         5.5220  -15.5570  -11.2760 C.3     1  MOL1        0.1670
     18 O11         5.1140  -14.5030  -10.4070 O.3     1  MOL1       -0.4800
     19 C12         3.8620  -14.4940   -9.7880 C.ar    1  MOL1        0.1660
     20 C13         2.7460  -13.8830  -10.4040 C.ar    1  MOL1        0.0120
     21 C21         1.4880  -13.9670   -9.7840 C.ar    1  MOL1       -0.0540
     22 C22         1.3490  -14.6040   -8.5510 C.ar    1  MOL1       -0.0580
     23 C23         2.4610  -15.1630   -7.9200 C.ar    1  MOL1       -0.0160
     24 C24         3.7270  -15.1090   -8.5320 C.ar    1  MOL1        0.1610
     25 C14         2.8690  -13.1370  -11.7150 C.3     1  MOL1        0.0280
     26 N15         1.9220  -12.0040  -11.7540 N.3     1  MOL1       -0.2870
     27 C16         2.1700  -11.1310  -12.9150 C.3     1  MOL1        0.0640
     28 C17         2.5940   -9.9670  -12.0410 C.3     1  MOL1        0.2720
     29 F18         1.7230   -8.8920  -12.0870 F       1  MOL1       -0.2040
     30 F19         3.9260   -9.6170  -12.1860 F       1  MOL1       -0.2040
     31 C20         2.3400  -10.9000  -10.8730 C.3     1  MOL1        0.0640
     32 O25         4.8690  -15.6570   -7.9320 O.3     1  MOL1       -0.4930
     33 C26         4.8700  -16.8270   -7.1200 C.3     1  MOL1        0.0780
@<TRIPOS>BOND
     1    27    28    1
     2    27    26    1
     3    30    28    1
     4    29    28    1
     5    28    31    1
     6    26    25    1
     7    26    31    1
     8    25    20    1
     9    17    15    1
    10    17    18    1
    11    14    15   am
    12    14     8    1
    13    15    16    2
    14     6     5    1
    15     5     4   ar
    16     5     7   ar
    17     4     3   ar
    18     7     1   ar
    19    18    19    1
    20    20    19   ar
    21    20    21   ar
    22     3     2   ar
    23     1     2   ar
    24     1     8    1
    25     8     9    1
    26    19    24   ar
    27    21    22   ar
    28    11    10    1
    29    11    12   am
    30     9    12    1
    31    12    13    2
    32    22    23   ar
    33    24    32    1
    34    24    23   ar
    35    32    33    1
