@<TRIPOS>MOLECULE
L3024_0_out.pdbqt
 33 35 0 0 0
SMALL
GASTEIGER

@<TRIPOS>ATOM
      1 C27        12.5510  -16.3280   -7.3310 C.ar    1  MOL1       -0.0240
      2 C28        12.3100  -15.5570   -6.1790 C.ar    1  MOL1       -0.0570
      3 C29        13.3410  -14.8060   -5.6030 C.ar    1  MOL1       -0.0610
      4 C30        14.6190  -14.8190   -6.1680 C.ar    1  MOL1       -0.0480
      5 C31        14.8700  -15.5800   -7.3150 C.ar    1  MOL1        0.0180
      6 Br32       16.6150  -15.5790   -8.1010 Br      1  MOL1       -0.0510
      7 C33        13.8440  -16.3350   -7.8910 C.ar    1  MOL1       -0.0430
      8  C6        11.4500  -17.1940   -7.9060 C.3     1  MOL1        0.0630
      9  C5        10.0760  -16.6680   -7.4550 C.3     1  MOL1        0.0510
     10  C1         6.5930  -16.8850   -9.1860 C.3     1  MOL1        0.0060
     11  N2         7.6480  -16.6060   -8.2220 N.am    1  MOL1       -0.3590
     12  C3         9.0090  -16.9790   -8.4640 C.2     1  MOL1        0.2220
     13  O4         9.3220  -17.5720   -9.5330 O.2     1  MOL1       -0.2750
     14  N7        11.6310  -18.5890   -7.4900 N.am    1  MOL1       -0.3460
     15  C8        12.0240  -19.6180   -8.4010 C.2     1  MOL1        0.2580
     16  O9        12.2200  -19.3500   -9.6160 O.2     1  MOL1       -0.2710
     17 C10        12.2200  -21.0230   -7.9180 C.3     1  MOL1        0.1670
     18 O11        11.0020  -21.7580   -8.0120 O.3     1  MOL1       -0.4800
     19 C12        10.8200  -22.7740   -8.9550 C.ar    1  MOL1        0.1660
     20 C13        10.0060  -22.5770  -10.0940 C.ar    1  MOL1        0.0120
     21 C21         9.9150  -23.5970  -11.0560 C.ar    1  MOL1       -0.0540
     22 C22        10.5790  -24.8080  -10.8680 C.ar    1  MOL1       -0.0580
     23 C23        11.3410  -25.0190   -9.7190 C.ar    1  MOL1       -0.0160
     24 C24        11.4640  -24.0050   -8.7510 C.ar    1  MOL1        0.1610
     25 C14         9.2280  -21.2970  -10.3060 C.3     1  MOL1        0.0280
     26 N15         7.8120  -21.5960  -10.6020 N.3     1  MOL1       -0.2870
     27 C16         6.9860  -20.3780  -10.5850 C.3     1  MOL1        0.0640
     28 C17         6.2050  -20.8360   -9.3690 C.3     1  MOL1        0.2720
     29 F18         4.8720  -21.1000   -9.6320 F       1  MOL1       -0.2040
     30 F19         6.4110  -20.0520   -8.2450 F       1  MOL1       -0.2040
     31 C20         7.0840  -22.0700   -9.4120 C.3     1  MOL1        0.0640
     32 O25        12.2190  -24.1770   -7.5820 O.3     1  MOL1       -0.4930
     33 C26        12.6740  -25.4350   -7.0940 C.3     1  MOL1        0.0780
@<TRIPOS>BOND
     1    21    22   ar
     2    21    20   ar
     3    22    23   ar
     4    26    27    1
     5    26    25    1
     6    26    31    1
     7    27    28    1
     8    25    20    1
     9    20    19   ar
    10    23    24   ar
    11    29    28    1
    12    16    15    2
    13    13    12    2
    14    31    28    1
    15    28    30    1
    16    10    11    1
    17    19    24   ar
    18    19    18    1
    19    24    32    1
    20    12    11   am
    21    12     9    1
    22    15    17    1
    23    15    14   am
    24     6     5    1
    25    18    17    1
    26     8    14    1
    27     8     9    1
    28     8     1    1
    29     7     1   ar
    30     7     5   ar
    31    32    33    1
    32     1     2   ar
    33     5     4   ar
    34     2     3   ar
    35     4     3   ar
