@<TRIPOS>MOLECULE
L3024_0_out.pdbqt
 33 35 0 0 0
SMALL
GASTEIGER

@<TRIPOS>ATOM
      1 C27         8.8530  -17.7650   -9.0310 C.ar    1  MOL1       -0.0240
      2 C28         7.9930  -16.9890   -8.2320 C.ar    1  MOL1       -0.0570
      3 C29         6.9080  -16.3170   -8.8060 C.ar    1  MOL1       -0.0610
      4 C30         6.6720  -16.4120  -10.1800 C.ar    1  MOL1       -0.0480
      5 C31         7.5170  -17.1820  -10.9860 C.ar    1  MOL1        0.0180
      6 Br32        7.1800  -17.3290  -12.8630 Br      1  MOL1       -0.0510
      7 C33         8.6060  -17.8510  -10.4170 C.ar    1  MOL1       -0.0430
      8  C6        10.0650  -18.4290   -8.4160 C.3     1  MOL1        0.0630
      9  C5         9.6490  -19.7260   -7.6990 C.3     1  MOL1        0.0510
     10  C1         9.1370  -22.1930  -10.6700 C.3     1  MOL1        0.0060
     11  N2         9.7370  -21.2460   -9.7410 N.am    1  MOL1       -0.3590
     12  C3         8.9990  -20.6940   -8.6460 C.2     1  MOL1        0.2220
     13  O4         7.7940  -21.0210   -8.4660 O.2     1  MOL1       -0.2750
     14  N7        10.7270  -17.5130   -7.4810 N.am    1  MOL1       -0.3460
     15  C8        12.0690  -17.0600   -7.6690 C.2     1  MOL1        0.2580
     16  O9        12.7400  -17.4530   -8.6600 O.2     1  MOL1       -0.2710
     17 C10        12.6890  -16.1020   -6.6960 C.3     1  MOL1        0.1670
     18 O11        14.1080  -16.2450   -6.6890 O.3     1  MOL1       -0.4800
     19 C12        14.7970  -16.7450   -5.5820 C.ar    1  MOL1        0.1660
     20 C13        15.4670  -17.9890   -5.6380 C.ar    1  MOL1        0.0120
     21 C21        16.2130  -18.4170   -4.5270 C.ar    1  MOL1       -0.0540
     22 C22        16.2550  -17.6470   -3.3640 C.ar    1  MOL1       -0.0580
     23 C23        15.5520  -16.4440   -3.2930 C.ar    1  MOL1       -0.0160
     24 C24        14.8140  -15.9860   -4.4000 C.ar    1  MOL1        0.1610
     25 C14        15.4000  -18.8750   -6.8620 C.3     1  MOL1        0.0280
     26 N15        14.8890  -20.2140   -6.5030 N.3     1  MOL1       -0.2870
     27 C16        14.7780  -21.0860   -7.6840 C.3     1  MOL1        0.0640
     28 C17        13.2660  -21.1440   -7.5910 C.3     1  MOL1        0.2720
     29 F18        12.7760  -22.3990   -7.2760 F       1  MOL1       -0.2040
     30 F19        12.6190  -20.5400   -8.6570 F       1  MOL1       -0.2040
     31 C20        13.4200  -20.2350   -6.3880 C.3     1  MOL1        0.0640
     32 O25        14.0940  -14.7840   -4.3690 O.3     1  MOL1       -0.4930
     33 C26        14.2210  -13.7940   -3.3540 C.3     1  MOL1        0.0780
@<TRIPOS>BOND
     1     6     5    1
     2     5     7   ar
     3     5     4   ar
     4    10    11    1
     5     7     1   ar
     6     4     3   ar
     7    11    12   am
     8     1     8    1
     9     1     2   ar
    10     3     2   ar
    11    16    15    2
    12    30    28    1
    13    12    13    2
    14    12     9    1
    15     8     9    1
    16     8    14    1
    17    27    28    1
    18    27    26    1
    19    15    14   am
    20    15    17    1
    21    28    29    1
    22    28    31    1
    23    25    26    1
    24    25    20    1
    25    17    18    1
    26    18    19    1
    27    26    31    1
    28    20    19   ar
    29    20    21   ar
    30    19    24   ar
    31    21    22   ar
    32    24    32    1
    33    24    23   ar
    34    32    33    1
    35    22    23   ar
