@<TRIPOS>MOLECULE
L3024_0_out.pdbqt
 33 35 0 0 0
SMALL
GASTEIGER

@<TRIPOS>ATOM
      1 C27        10.0800  -17.8090   -8.6210 C.ar    1  MOL1       -0.0240
      2 C28         9.5080  -16.7440   -7.9010 C.ar    1  MOL1       -0.0570
      3 C29         8.3500  -16.1140   -8.3690 C.ar    1  MOL1       -0.0610
      4 C30         7.7510  -16.5410   -9.5570 C.ar    1  MOL1       -0.0480
      5 C31         8.3070  -17.6020  -10.2810 C.ar    1  MOL1        0.0180
      6 Br32        7.4750  -18.1990  -11.8970 Br      1  MOL1       -0.0510
      7 C33         9.4680  -18.2300   -9.8190 C.ar    1  MOL1       -0.0430
      8  C6        11.3730  -18.4360   -8.1460 C.3     1  MOL1        0.0630
      9  C5        11.0880  -19.7960   -7.4840 C.3     1  MOL1        0.0510
     10  C1        13.4870  -22.7750   -6.7490 C.3     1  MOL1        0.0060
     11  N2        12.3350  -21.8850   -6.7320 N.am    1  MOL1       -0.3590
     12  C3        12.2950  -20.6870   -7.5150 C.2     1  MOL1        0.2220
     13  O4        13.2780  -20.3730   -8.2400 O.2     1  MOL1       -0.2750
     14  N7        12.0590  -17.5390   -7.2100 N.am    1  MOL1       -0.3460
     15  C8        13.3010  -16.9050   -7.5220 C.2     1  MOL1        0.2580
     16  O9        13.8590  -17.1130   -8.6330 O.2     1  MOL1       -0.2710
     17 C10        13.9470  -15.9770   -6.5390 C.3     1  MOL1        0.1670
     18 O11        14.5630  -16.7150   -5.4850 O.3     1  MOL1       -0.4800
     19 C12        15.9360  -16.6460   -5.2360 C.ar    1  MOL1        0.1660
     20 C13        16.8290  -17.5870   -5.7970 C.ar    1  MOL1        0.0120
     21 C21        18.2090  -17.4330   -5.5840 C.ar    1  MOL1       -0.0540
     22 C22        18.6920  -16.3940   -4.7900 C.ar    1  MOL1       -0.0580
     23 C23        17.8050  -15.4950   -4.1960 C.ar    1  MOL1       -0.0160
     24 C24        16.4190  -15.6170   -4.4110 C.ar    1  MOL1        0.1610
     25 C14        16.3390  -18.7580   -6.6200 C.3     1  MOL1        0.0280
     26 N15        17.3240  -19.1010   -7.6660 N.3     1  MOL1       -0.2870
     27 C16        16.6730  -19.3450   -8.9640 C.3     1  MOL1        0.0640
     28 C17        17.0580  -20.8110   -8.9650 C.3     1  MOL1        0.2720
     29 F18        17.9650  -21.1470   -9.9550 F       1  MOL1       -0.2040
     30 F19        15.9760  -21.6720   -8.8800 F       1  MOL1       -0.2040
     31 C20        17.7060  -20.5240   -7.6240 C.3     1  MOL1        0.0640
     32 O25        15.4950  -14.7360   -3.8310 O.3     1  MOL1       -0.4930
     33 C26        15.3890  -14.4830   -2.4340 C.3     1  MOL1        0.0780
@<TRIPOS>BOND
     1     6     5    1
     2     5     7   ar
     3     5     4   ar
     4    29    28    1
     5     7     1   ar
     6     4     3   ar
     7    28    27    1
     8    28    30    1
     9    28    31    1
    10    27    26    1
    11    16    15    2
    12     1     8    1
    13     1     2   ar
    14     3     2   ar
    15    13    12    2
    16     8     9    1
    17     8    14    1
    18    26    31    1
    19    26    25    1
    20    15    14   am
    21    15    17    1
    22    12     9    1
    23    12    11   am
    24    10    11    1
    25    25    20    1
    26    17    18    1
    27    20    21   ar
    28    20    19   ar
    29    21    22   ar
    30    18    19    1
    31    19    24   ar
    32    22    23   ar
    33    24    23   ar
    34    24    32    1
    35    32    33    1
