@<TRIPOS>MOLECULE
L3024_0_out.pdbqt
 33 35 0 0 0
SMALL
GASTEIGER

@<TRIPOS>ATOM
      1 C27        14.7090  -16.2630   -2.4900 C.ar    1  MOL1       -0.0240
      2 C28        14.6010  -15.2360   -1.5350 C.ar    1  MOL1       -0.0570
      3 C29        14.2510  -13.9390   -1.9260 C.ar    1  MOL1       -0.0610
      4 C30        14.0070  -13.6550   -3.2720 C.ar    1  MOL1       -0.0480
      5 C31        14.1080  -14.6680   -4.2330 C.ar    1  MOL1        0.0180
      6 Br32       13.7510  -14.2830   -6.0720 Br      1  MOL1       -0.0510
      7 C33        14.4620  -15.9640   -3.8460 C.ar    1  MOL1       -0.0430
      8  C6        15.1590  -17.6450   -2.0690 C.3     1  MOL1        0.0630
      9  C5        16.0190  -17.5540   -0.7960 C.3     1  MOL1        0.0510
     10  C1        13.6210  -19.8790    1.2090 C.3     1  MOL1        0.0060
     11  N2        14.1880  -19.0460    0.1580 N.am    1  MOL1       -0.3590
     12  C3        15.4560  -18.3990    0.3110 C.2     1  MOL1        0.2220
     13  O4        16.1120  -18.5370    1.3790 O.2     1  MOL1       -0.2750
     14  N7        15.9080  -18.2890   -3.1540 N.am    1  MOL1       -0.3460
     15  C8        15.5710  -19.5820   -3.6590 C.2     1  MOL1        0.2580
     16  O9        14.6040  -20.2240   -3.1680 O.2     1  MOL1       -0.2710
     17 C10        16.3540  -20.1830   -4.7880 C.3     1  MOL1        0.1670
     18 O11        15.7660  -19.8410   -6.0400 O.3     1  MOL1       -0.4800
     19 C12        16.5390  -19.5580   -7.1700 C.ar    1  MOL1        0.1660
     20 C13        17.0980  -18.2750   -7.3700 C.ar    1  MOL1        0.0120
     21 C21        17.9340  -18.0580   -8.4780 C.ar    1  MOL1       -0.0540
     22 C22        18.1710  -19.0790   -9.3970 C.ar    1  MOL1       -0.0580
     23 C23        17.5780  -20.3300   -9.2250 C.ar    1  MOL1       -0.0160
     24 C24        16.7530  -20.5780   -8.1120 C.ar    1  MOL1        0.1610
     25 C14        16.8200  -17.1280   -6.4240 C.3     1  MOL1        0.0280
     26 N15        18.0470  -16.3370   -6.1980 N.3     1  MOL1       -0.2870
     27 C16        18.8000  -16.8260   -5.0310 C.3     1  MOL1        0.0640
     28 C17        18.5550  -15.5530   -4.2460 C.3     1  MOL1        0.2720
     29 F18        19.7020  -14.8150   -4.0120 F       1  MOL1       -0.2040
     30 F19        17.7640  -15.7330   -3.1230 F       1  MOL1       -0.2040
     31 C20        17.7760  -15.0900   -5.4620 C.3     1  MOL1        0.0640
     32 O25        16.1370  -21.8200   -7.9020 O.3     1  MOL1       -0.4930
     33 C26        14.7810  -22.1110   -8.2220 C.3     1  MOL1        0.0780
@<TRIPOS>BOND
     1    22    23   ar
     2    22    21   ar
     3    23    24   ar
     4    21    20   ar
     5    33    32    1
     6    24    32    1
     7    24    19   ar
     8    20    19   ar
     9    20    25    1
    10    19    18    1
    11    25    26    1
    12    26    31    1
    13    26    27    1
    14     6     5    1
    15    18    17    1
    16    31    28    1
    17    27    28    1
    18    17    15    1
    19    28    29    1
    20    28    30    1
    21     5     7   ar
    22     5     4   ar
    23     7     1   ar
    24    15    16    2
    25    15    14   am
    26     4     3   ar
    27    14     8    1
    28     1     8    1
    29     1     2   ar
    30     8     9    1
    31     3     2   ar
    32     9    12    1
    33    11    12   am
    34    11    10    1
    35    12    13    2
