@<TRIPOS>MOLECULE
L3024_0_out.pdbqt
 33 35 0 0 0
SMALL
GASTEIGER

@<TRIPOS>ATOM
      1 C27        15.6270  -18.8520   -2.8180 C.ar    1  MOL1       -0.0240
      2 C28        15.4320  -17.5980   -2.2100 C.ar    1  MOL1       -0.0570
      3 C29        14.8810  -17.5110   -0.9270 C.ar    1  MOL1       -0.0610
      4 C30        14.5190  -18.6730   -0.2400 C.ar    1  MOL1       -0.0480
      5 C31        14.7110  -19.9260   -0.8310 C.ar    1  MOL1        0.0180
      6 Br32       14.2350  -21.5170    0.1190 Br      1  MOL1       -0.0510
      7 C33        15.2560  -20.0170   -2.1160 C.ar    1  MOL1       -0.0430
      8  C6        16.1560  -18.9330   -4.2340 C.3     1  MOL1        0.0630
      9  C5        17.4340  -18.0860   -4.3680 C.3     1  MOL1        0.0510
     10  C1        19.1040  -20.5530   -6.8790 C.3     1  MOL1        0.0060
     11  N2        18.2410  -19.9970   -5.8470 N.am    1  MOL1       -0.3590
     12  C3        18.3470  -18.6320   -5.4280 C.2     1  MOL1        0.2220
     13  O4        19.2090  -17.8750   -5.9520 O.2     1  MOL1       -0.2750
     14  N7        15.1350  -18.4810   -5.1850 N.am    1  MOL1       -0.3460
     15  C8        14.6360  -19.3150   -6.2330 C.2     1  MOL1        0.2580
     16  O9        15.0790  -20.4850   -6.3780 O.2     1  MOL1       -0.2710
     17 C10        13.5720  -18.8120   -7.1610 C.3     1  MOL1        0.1670
     18 O11        14.1590  -18.1450   -8.2770 O.3     1  MOL1       -0.4800
     19 C12        14.9010  -16.9700   -8.1320 C.ar    1  MOL1        0.1660
     20 C13        16.2690  -16.9220   -8.4850 C.ar    1  MOL1        0.0120
     21 C21        16.9570  -15.7000   -8.3980 C.ar    1  MOL1       -0.0540
     22 C22        16.3120  -14.5570   -7.9240 C.ar    1  MOL1       -0.0580
     23 C23        14.9760  -14.6190   -7.5290 C.ar    1  MOL1       -0.0160
     24 C24        14.2610  -15.8270   -7.6260 C.ar    1  MOL1        0.1610
     25 C14        17.0150  -18.1520   -8.9530 C.3     1  MOL1        0.0280
     26 N15        18.2330  -17.7650   -9.6950 N.3     1  MOL1       -0.2870
     27 C16        17.9490  -17.5380  -11.1220 C.3     1  MOL1        0.0640
     28 C17        18.7880  -18.7240  -11.5530 C.3     1  MOL1        0.2720
     29 F18        19.9210  -18.3730  -12.2670 F       1  MOL1       -0.2040
     30 F19        18.0540  -19.7450  -12.1330 F       1  MOL1       -0.2040
     31 C20        19.0470  -18.9330  -10.0740 C.3     1  MOL1        0.0640
     32 O25        12.9170  -15.9320   -7.2380 O.3     1  MOL1       -0.4930
     33 C26        12.3730  -15.3550   -6.0560 C.3     1  MOL1        0.0780
@<TRIPOS>BOND
     1    29    28    1
     2    30    28    1
     3    28    27    1
     4    28    31    1
     5    27    26    1
     6    31    26    1
     7    26    25    1
     8    25    20    1
     9    20    21   ar
    10    20    19   ar
    11    21    22   ar
    12    18    19    1
    13    18    17    1
    14    19    24   ar
    15    22    23   ar
    16    24    23   ar
    17    24    32    1
    18    32    33    1
    19    17    15    1
    20    10    11    1
    21    16    15    2
    22    15    14   am
    23    13    12    2
    24    11    12   am
    25    12     9    1
    26    14     8    1
    27     9     8    1
    28     8     1    1
    29     1     2   ar
    30     1     7   ar
    31     2     3   ar
    32     7     5   ar
    33     3     4   ar
    34     5     4   ar
    35     5     6    1
