@<TRIPOS>MOLECULE
L3024_0_out.pdbqt
 33 35 0 0 0
SMALL
GASTEIGER

@<TRIPOS>ATOM
      1 C27        11.0460  -19.4370   -8.8500 C.ar    1  MOL1       -0.0240
      2 C28        10.9690  -18.7260  -10.0610 C.ar    1  MOL1       -0.0570
      3 C29         9.7470  -18.5940  -10.7280 C.ar    1  MOL1       -0.0610
      4 C30         8.5900  -19.1690  -10.1940 C.ar    1  MOL1       -0.0480
      5 C31         8.6520  -19.8760   -8.9870 C.ar    1  MOL1        0.0180
      6 Br32        7.0650  -20.6430   -8.2450 Br      1  MOL1       -0.0510
      7 C33         9.8740  -20.0140   -8.3200 C.ar    1  MOL1       -0.0430
      8  C6        12.3840  -19.6370   -8.1720 C.3     1  MOL1        0.0630
      9  C5        12.4310  -21.0190   -7.4950 C.3     1  MOL1        0.0510
     10  C1        16.0880  -21.2000   -6.1670 C.3     1  MOL1        0.0060
     11  N2        14.9380  -21.1030   -7.0540 N.am    1  MOL1       -0.3590
     12  C3        13.5960  -21.1330   -6.5550 C.2     1  MOL1        0.2220
     13  O4        13.3840  -21.2520   -5.3180 O.2     1  MOL1       -0.2750
     14  N7        12.6210  -18.5730   -7.1910 N.am    1  MOL1       -0.3460
     15  C8        13.4190  -17.4240   -7.4810 C.2     1  MOL1        0.2580
     16  O9        13.9610  -17.2950   -8.6100 O.2     1  MOL1       -0.2710
     17 C10        13.6080  -16.3520   -6.4490 C.3     1  MOL1        0.1670
     18 O11        14.9580  -15.8940   -6.4470 O.3     1  MOL1       -0.4800
     19 C12        16.0020  -16.6650   -5.9290 C.ar    1  MOL1        0.1660
     20 C13        15.9960  -17.0940   -4.5820 C.ar    1  MOL1        0.0120
     21 C21        17.0250  -17.9330   -4.1250 C.ar    1  MOL1       -0.0540
     22 C22        18.0680  -18.3010   -4.9750 C.ar    1  MOL1       -0.0580
     23 C23        18.0990  -17.8360   -6.2900 C.ar    1  MOL1       -0.0160
     24 C24        17.0680  -17.0100   -6.7760 C.ar    1  MOL1        0.1610
     25 C14        14.9100  -16.6720   -3.6170 C.3     1  MOL1        0.0280
     26 N15        15.4790  -15.8530   -2.5260 N.3     1  MOL1       -0.2870
     27 C16        14.4470  -15.4490   -1.5570 C.3     1  MOL1        0.0640
     28 C17        14.5790  -13.9830   -1.9160 C.3     1  MOL1        0.2720
     29 F18        15.0920  -13.2040   -0.8930 F       1  MOL1       -0.2040
     30 F19        13.4480  -13.4510   -2.5130 F       1  MOL1       -0.2040
     31 C20        15.6270  -14.4390   -2.9120 C.3     1  MOL1        0.0640
     32 O25        17.0620  -16.5210   -8.0900 O.3     1  MOL1       -0.4930
     33 C26        17.5350  -17.2440   -9.2210 C.3     1  MOL1        0.0780
@<TRIPOS>BOND
     1     3     4   ar
     2     3     2   ar
     3     4     5   ar
     4     2     1   ar
     5    33    32    1
     6     5     7   ar
     7     5     6    1
     8     1     7   ar
     9     1     8    1
    10    16    15    2
    11     8     9    1
    12     8    14    1
    13    32    24    1
    14     9    12    1
    15    15    14   am
    16    15    17    1
    17    11    12   am
    18    11    10    1
    19    24    23   ar
    20    24    19   ar
    21    12    13    2
    22    17    18    1
    23    18    19    1
    24    23    22   ar
    25    19    20   ar
    26    22    21   ar
    27    20    21   ar
    28    20    25    1
    29    25    26    1
    30    31    26    1
    31    31    28    1
    32    26    27    1
    33    30    28    1
    34    28    27    1
    35    28    29    1
