@<TRIPOS>MOLECULE
L3024_0_out.pdbqt
 33 35 0 0 0
SMALL
GASTEIGER

@<TRIPOS>ATOM
      1 C27         6.9840  -18.1720   -8.4930 C.ar    1  MOL1       -0.0240
      2 C28         6.3750  -19.4400   -8.5120 C.ar    1  MOL1       -0.0570
      3 C29         5.1290  -19.6360   -7.9060 C.ar    1  MOL1       -0.0610
      4 C30         4.4810  -18.5700   -7.2760 C.ar    1  MOL1       -0.0480
      5 C31         5.0740  -17.3030   -7.2530 C.ar    1  MOL1        0.0180
      6 Br32        4.1750  -15.8390   -6.4100 Br      1  MOL1       -0.0510
      7 C33         6.3220  -17.1050   -7.8540 C.ar    1  MOL1       -0.0430
      8  C6         8.3630  -17.9860   -9.0870 C.3     1  MOL1        0.0630
      9  C5         8.3210  -18.2320  -10.6070 C.3     1  MOL1        0.0510
     10  C1         6.1250  -15.1100  -11.3860 C.3     1  MOL1        0.0060
     11  N2         7.0620  -16.0220  -10.7460 N.am    1  MOL1       -0.3590
     12  C3         7.3410  -17.3180  -11.2850 C.2     1  MOL1        0.2220
     13  O4         6.7640  -17.7020  -12.3390 O.2     1  MOL1       -0.2750
     14  N7         9.3200  -18.8930   -8.4440 N.am    1  MOL1       -0.3460
     15  C8        10.4720  -18.4230   -7.7400 C.2     1  MOL1        0.2580
     16  O9        10.7070  -17.1880   -7.6600 O.2     1  MOL1       -0.2710
     17 C10        11.4040  -19.3930   -7.0780 C.3     1  MOL1        0.1670
     18 O11        12.4030  -19.8300   -7.9970 O.3     1  MOL1       -0.4800
     19 C12        13.6380  -20.3240   -7.5690 C.ar    1  MOL1        0.1660
     20 C13        14.7750  -19.4860   -7.4960 C.ar    1  MOL1        0.0120
     21 C21        15.9760  -20.0050   -6.9850 C.ar    1  MOL1       -0.0540
     22 C22        16.0630  -21.3420   -6.5990 C.ar    1  MOL1       -0.0580
     23 C23        14.9540  -22.1800   -6.7190 C.ar    1  MOL1       -0.0160
     24 C24        13.7340  -21.6780   -7.2090 C.ar    1  MOL1        0.1610
     25 C14        14.7330  -18.0460   -7.9550 C.3     1  MOL1        0.0280
     26 N15        15.9000  -17.3040   -7.4330 N.3     1  MOL1       -0.2870
     27 C16        15.4880  -16.1270   -6.6510 C.3     1  MOL1        0.0640
     28 C17        16.0800  -15.1600   -7.6560 C.3     1  MOL1        0.2720
     29 F18        17.1610  -14.4450   -7.1700 F       1  MOL1       -0.2040
     30 F19        15.1360  -14.3780   -8.3020 F       1  MOL1       -0.2040
     31 C20        16.4760  -16.3960   -8.4400 C.3     1  MOL1        0.0640
     32 O25        12.5970  -22.4870   -7.3460 O.3     1  MOL1       -0.4930
     33 C26        12.4700  -23.5450   -8.2900 C.3     1  MOL1        0.0780
@<TRIPOS>BOND
     1    13    12    2
     2    10    11    1
     3    12    11   am
     4    12     9    1
     5     9     8    1
     6     8     1    1
     7     8    14    1
     8     2     1   ar
     9     2     3   ar
    10     1     7   ar
    11    14    15   am
    12    31    28    1
    13    31    26    1
    14    30    28    1
    15    33    32    1
    16    18    19    1
    17    18    17    1
    18    25    20    1
    19    25    26    1
    20     3     4   ar
    21     7     5   ar
    22    15    16    2
    23    15    17    1
    24    28    29    1
    25    28    27    1
    26    19    20   ar
    27    19    24   ar
    28    20    21   ar
    29    26    27    1
    30    32    24    1
    31     4     5   ar
    32     5     6    1
    33    24    23   ar
    34    21    22   ar
    35    23    22   ar
