@<TRIPOS>MOLECULE
L3024_0_out.pdbqt
 33 35 0 0 0
SMALL
GASTEIGER

@<TRIPOS>ATOM
      1 C27         7.6880  -18.3540   -8.5330 C.ar    1  MOL1       -0.0240
      2 C28         7.3210  -17.0360   -8.2080 C.ar    1  MOL1       -0.0570
      3 C29         6.0280  -16.7530   -7.7540 C.ar    1  MOL1       -0.0610
      4 C30         5.0910  -17.7810   -7.6210 C.ar    1  MOL1       -0.0480
      5 C31         5.4440  -19.0980   -7.9380 C.ar    1  MOL1        0.0180
      6 Br32        4.1670  -20.5080   -7.7350 Br      1  MOL1       -0.0510
      7 C33         6.7340  -19.3840   -8.3970 C.ar    1  MOL1       -0.0430
      8  C6         9.0650  -18.6410   -9.0920 C.3     1  MOL1        0.0630
      9  C5         9.5540  -20.0190   -8.6100 C.3     1  MOL1        0.0510
     10  C1         9.8190  -23.3930  -10.5380 C.3     1  MOL1        0.0060
     11  N2         9.7780  -22.4060   -9.4690 N.am    1  MOL1       -0.3590
     12  C3         9.6030  -21.0100   -9.7360 C.2     1  MOL1        0.2220
     13  O4         9.4850  -20.6040  -10.9240 O.2     1  MOL1       -0.2750
     14  N7        10.0060  -17.5900   -8.6890 N.am    1  MOL1       -0.3460
     15  C8        10.9070  -17.7440   -7.5910 C.2     1  MOL1        0.2580
     16  O9        10.9110  -18.8080   -6.9170 O.2     1  MOL1       -0.2710
     17 C10        11.8670  -16.6470   -7.2380 C.3     1  MOL1        0.1670
     18 O11        13.0890  -17.1920   -6.7490 O.3     1  MOL1       -0.4800
     19 C12        14.3340  -16.7300   -7.1840 C.ar    1  MOL1        0.1660
     20 C13        14.9780  -15.6480   -6.5410 C.ar    1  MOL1        0.0120
     21 C21        16.2640  -15.2680   -6.9620 C.ar    1  MOL1       -0.0540
     22 C22        16.8790  -15.9170   -8.0320 C.ar    1  MOL1       -0.0580
     23 C23        16.2210  -16.9510   -8.6980 C.ar    1  MOL1       -0.0160
     24 C24        14.9410  -17.3630   -8.2820 C.ar    1  MOL1        0.1610
     25 C14        14.3200  -14.8870   -5.4120 C.3     1  MOL1        0.0280
     26 N15        15.2900  -14.6330   -4.3270 N.3     1  MOL1       -0.2870
     27 C16        15.5510  -15.8480   -3.5380 C.3     1  MOL1        0.0640
     28 C17        14.9160  -15.2640   -2.2920 C.3     1  MOL1        0.2720
     29 F18        15.8130  -15.0420   -1.2620 F       1  MOL1       -0.2040
     30 F19        13.7600  -15.9180   -1.8970 F       1  MOL1       -0.2040
     31 C20        14.6530  -14.0360   -3.1400 C.3     1  MOL1        0.0640
     32 O25        14.2450  -18.3970   -8.9240 O.3     1  MOL1       -0.4930
     33 C26        14.2370  -19.7530   -8.4910 C.3     1  MOL1        0.0780
@<TRIPOS>BOND
     1    13    12    2
     2    10    11    1
     3    12    11   am
     4    12     9    1
     5     8    14    1
     6     8     9    1
     7     8     1    1
     8    32    33    1
     9    32    24    1
    10    23    24   ar
    11    23    22   ar
    12    14    15   am
    13     1     7   ar
    14     1     2   ar
    15     7     5   ar
    16    24    19   ar
    17     2     3   ar
    18    22    21   ar
    19     5     6    1
    20     5     4   ar
    21     3     4   ar
    22    15    17    1
    23    15    16    2
    24    17    18    1
    25    19    18    1
    26    19    20   ar
    27    21    20   ar
    28    20    25    1
    29    25    26    1
    30    26    27    1
    31    26    31    1
    32    27    28    1
    33    31    28    1
    34    28    30    1
    35    28    29    1
