@<TRIPOS>MOLECULE
L3024_0_out.pdbqt
 33 35 0 0 0
SMALL
GASTEIGER

@<TRIPOS>ATOM
      1 C27         9.4290  -20.6870   -8.9790 C.ar    1  MOL1       -0.0240
      2 C28        10.1150  -21.8930   -9.2080 C.ar    1  MOL1       -0.0570
      3 C29         9.4150  -23.0450   -9.5830 C.ar    1  MOL1       -0.0610
      4 C30         8.0260  -23.0050   -9.7300 C.ar    1  MOL1       -0.0480
      5 C31         7.3320  -21.8110   -9.5080 C.ar    1  MOL1        0.0180
      6 Br32        5.4320  -21.7510   -9.7310 Br      1  MOL1       -0.0510
      7 C33         8.0270  -20.6580   -9.1280 C.ar    1  MOL1       -0.0430
      8  C6        10.1840  -19.4640   -8.5040 C.3     1  MOL1        0.0630
      9  C5        10.1970  -18.3910   -9.6070 C.3     1  MOL1        0.0510
     10  C1         7.0000  -16.2490  -10.2110 C.3     1  MOL1        0.0060
     11  N2         8.0760  -17.2130  -10.3840 N.am    1  MOL1       -0.3590
     12  C3         9.1060  -17.3800   -9.4040 C.2     1  MOL1        0.2220
     13  O4         9.1010  -16.6770   -8.3560 O.2     1  MOL1       -0.2750
     14  N7        11.5530  -19.8290   -8.1230 N.am    1  MOL1       -0.3460
     15  C8        12.4440  -18.9120   -7.4840 C.2     1  MOL1        0.2580
     16  O9        12.0720  -17.7350   -7.2340 O.2     1  MOL1       -0.2710
     17 C10        13.8250  -19.3450   -7.0920 C.3     1  MOL1        0.1670
     18 O11        14.7090  -18.2270   -7.0670 O.3     1  MOL1       -0.4800
     19 C12        16.0060  -18.3200   -6.5550 C.ar    1  MOL1        0.1660
     20 C13        16.3060  -17.8930   -5.2410 C.ar    1  MOL1        0.0120
     21 C21        17.6050  -18.0780   -4.7390 C.ar    1  MOL1       -0.0540
     22 C22        18.6020  -18.6300   -5.5430 C.ar    1  MOL1       -0.0580
     23 C23        18.3170  -19.0040   -6.8570 C.ar    1  MOL1       -0.0160
     24 C24        17.0180  -18.8470   -7.3740 C.ar    1  MOL1        0.1610
     25 C14        15.2640  -17.2410   -4.3580 C.3     1  MOL1        0.0280
     26 N15        15.4270  -15.7730   -4.3670 N.3     1  MOL1       -0.2870
     27 C16        14.9460  -15.1670   -3.1130 C.3     1  MOL1        0.0640
     28 C17        13.8120  -14.4440   -3.8120 C.3     1  MOL1        0.2720
     29 F18        13.9450  -13.0660   -3.8070 F       1  MOL1       -0.2040
     30 F19        12.5540  -14.8880   -3.4390 F       1  MOL1       -0.2040
     31 C20        14.3290  -15.0970   -5.0790 C.3     1  MOL1        0.0640
     32 O25        16.6900  -19.2090   -8.6890 O.3     1  MOL1       -0.4930
     33 C26        16.5000  -18.2850   -9.7550 C.3     1  MOL1        0.0780
@<TRIPOS>BOND
     1    11    10    1
     2    11    12   am
     3    33    32    1
     4     6     5    1
     5     4     3   ar
     6     4     5   ar
     7     9    12    1
     8     9     8    1
     9     3     2   ar
    10     5     7   ar
    11    12    13    2
    12     2     1   ar
    13     7     1   ar
    14     1     8    1
    15    32    24    1
    16     8    14    1
    17    14    15   am
    18    15    16    2
    19    15    17    1
    20    24    23   ar
    21    24    19   ar
    22    17    18    1
    23    18    19    1
    24    23    22   ar
    25    19    20   ar
    26    22    21   ar
    27    20    21   ar
    28    20    25    1
    29    31    26    1
    30    31    28    1
    31    26    25    1
    32    26    27    1
    33    28    29    1
    34    28    30    1
    35    28    27    1
