@<TRIPOS>MOLECULE
L3024_0_out.pdbqt
 33 35 0 0 0
SMALL
GASTEIGER

@<TRIPOS>ATOM
      1 C27        15.8870  -18.2770   -5.4510 C.ar    1  MOL1       -0.0240
      2 C28        16.9150  -18.7490   -4.6150 C.ar    1  MOL1       -0.0570
      3 C29        17.1690  -18.1290   -3.3870 C.ar    1  MOL1       -0.0610
      4 C30        16.4010  -17.0340   -2.9820 C.ar    1  MOL1       -0.0480
      5 C31        15.3730  -16.5560   -3.8030 C.ar    1  MOL1        0.0180
      6 Br32       14.3090  -15.0700   -3.2390 Br      1  MOL1       -0.0510
      7 C33        15.1200  -17.1700   -5.0340 C.ar    1  MOL1       -0.0430
      8  C6        15.6660  -18.9060   -6.8100 C.3     1  MOL1        0.0630
      9  C5        16.5300  -18.1950   -7.8670 C.3     1  MOL1        0.0510
     10  C1        18.5630  -21.4270   -8.6400 C.3     1  MOL1        0.0060
     11  N2        17.5810  -20.5050   -8.0880 N.am    1  MOL1       -0.3590
     12  C3        17.5630  -19.1190   -8.4460 C.2     1  MOL1        0.2220
     13  O4        18.4170  -18.6630   -9.2550 O.2     1  MOL1       -0.2750
     14  N7        14.2470  -18.8430   -7.1750 N.am    1  MOL1       -0.3460
     15  C8        13.3290  -19.8960   -6.8770 C.2     1  MOL1        0.2580
     16  O9        13.7250  -20.9370   -6.2880 O.2     1  MOL1       -0.2710
     17 C10        11.8820  -19.7690   -7.2500 C.3     1  MOL1        0.1670
     18 O11        11.7340  -18.9390   -8.3990 O.3     1  MOL1       -0.4800
     19 C12        10.5950  -18.1560   -8.6070 C.ar    1  MOL1        0.1660
     20 C13         9.6770  -18.4610   -9.6380 C.ar    1  MOL1        0.0120
     21 C21         8.5050  -17.6960   -9.7600 C.ar    1  MOL1       -0.0540
     22 C22         8.2720  -16.6170   -8.9070 C.ar    1  MOL1       -0.0580
     23 C23         9.2040  -16.2870   -7.9230 C.ar    1  MOL1       -0.0160
     24 C24        10.3750  -17.0510   -7.7680 C.ar    1  MOL1        0.1610
     25 C14         9.9210  -19.5900  -10.6150 C.3     1  MOL1        0.0280
     26 N15         9.5750  -20.8880  -10.0010 N.3     1  MOL1       -0.2870
     27 C16         9.3120  -21.9170  -11.0210 C.3     1  MOL1        0.0640
     28 C17         7.8490  -22.0260  -10.6390 C.3     1  MOL1        0.2720
     29 F18         7.5110  -23.2470  -10.0810 F       1  MOL1       -0.2040
     30 F19         6.9800  -21.6020  -11.6310 F       1  MOL1       -0.2040
     31 C20         8.1570  -20.9570   -9.6090 C.3     1  MOL1        0.0640
     32 O25        11.3370  -16.7520   -6.7930 O.3     1  MOL1       -0.4930
     33 C26        12.3550  -15.7680   -6.9400 C.3     1  MOL1        0.0780
@<TRIPOS>BOND
     1    30    28    1
     2    27    28    1
     3    27    26    1
     4    28    29    1
     5    28    31    1
     6    25    26    1
     7    25    20    1
     8    26    31    1
     9    21    20   ar
    10    21    22   ar
    11    20    19   ar
    12    13    12    2
    13    22    23   ar
    14    10    11    1
    15    19    18    1
    16    19    24   ar
    17    12    11   am
    18    12     9    1
    19    18    17    1
    20    23    24   ar
    21     9     8    1
    22    24    32    1
    23    17    15    1
    24    14    15   am
    25    14     8    1
    26    33    32    1
    27    15    16    2
    28     8     1    1
    29     1     7   ar
    30     1     2   ar
    31     7     5   ar
    32     2     3   ar
    33     5     6    1
    34     5     4   ar
    35     3     4   ar
