@<TRIPOS>MOLECULE
L3024_0_out.pdbqt
 33 35 0 0 0
SMALL
GASTEIGER

@<TRIPOS>ATOM
      1 C27         7.8250  -17.9810   -9.2600 C.ar    1  MOL1       -0.0240
      2 C28         7.7930  -17.3020  -10.4920 C.ar    1  MOL1       -0.0570
      3 C29         6.8510  -16.2930  -10.7200 C.ar    1  MOL1       -0.0610
      4 C30         5.9320  -15.9540   -9.7230 C.ar    1  MOL1       -0.0480
      5 C31         5.9550  -16.6190   -8.4920 C.ar    1  MOL1        0.0180
      6 Br32        4.7110  -16.1380   -7.1210 Br      1  MOL1       -0.0510
      7 C33         6.8920  -17.6310   -8.2630 C.ar    1  MOL1       -0.0430
      8  C6         8.7990  -19.1190   -9.0480 C.3     1  MOL1        0.0630
      9  C5         8.0680  -20.3350   -8.4500 C.3     1  MOL1        0.0510
     10  C1         9.5150  -22.7980  -11.0980 C.3     1  MOL1        0.0060
     11  N2         9.3030  -21.6200  -10.2690 N.am    1  MOL1       -0.3590
     12  C3         8.2540  -21.5600   -9.2970 C.2     1  MOL1        0.2220
     13  O4         7.4780  -22.5430   -9.1430 O.2     1  MOL1       -0.2750
     14  N7         9.8950  -18.6930   -8.1700 N.am    1  MOL1       -0.3460
     15  C8        11.1660  -18.2760   -8.6740 C.2     1  MOL1        0.2580
     16  O9        11.3870  -18.2730   -9.9140 O.2     1  MOL1       -0.2710
     17 C10        12.2430  -17.8250   -7.7340 C.3     1  MOL1        0.1670
     18 O11        13.4490  -17.5600   -8.4470 O.3     1  MOL1       -0.4800
     19 C12        14.7060  -17.6860   -7.8500 C.ar    1  MOL1        0.1660
     20 C13        15.3970  -18.9190   -7.8540 C.ar    1  MOL1        0.0120
     21 C21        16.6920  -18.9810   -7.3120 C.ar    1  MOL1       -0.0540
     22 C22        17.2720  -17.8520   -6.7330 C.ar    1  MOL1       -0.0580
     23 C23        16.5680  -16.6490   -6.6860 C.ar    1  MOL1       -0.0160
     24 C24        15.2770  -16.5580   -7.2400 C.ar    1  MOL1        0.1610
     25 C14        14.7800  -20.1770   -8.4250 C.3     1  MOL1        0.0280
     26 N15        14.6240  -21.1990   -7.3700 N.3     1  MOL1       -0.2870
     27 C16        13.9640  -22.4120   -7.8840 C.3     1  MOL1        0.0640
     28 C17        12.7360  -22.1980   -7.0210 C.3     1  MOL1        0.2720
     29 F18        12.5700  -23.1630   -6.0430 F       1  MOL1       -0.2040
     30 F19        11.5860  -21.9290   -7.7460 F       1  MOL1       -0.2040
     31 C20        13.4420  -20.9510   -6.5260 C.3     1  MOL1        0.0640
     32 O25        14.5360  -15.3670   -7.2110 O.3     1  MOL1       -0.4930
     33 C26        14.8410  -14.2100   -7.9810 C.3     1  MOL1        0.0780
@<TRIPOS>BOND
     1    10    11    1
     2     3     2   ar
     3     3     4   ar
     4     2     1   ar
     5    11    12   am
     6    16    15    2
     7     4     5   ar
     8    12    13    2
     9    12     9    1
    10     1     8    1
    11     1     7   ar
    12     8     9    1
    13     8    14    1
    14    15    14   am
    15    15    17    1
    16     5     7   ar
    17     5     6    1
    18    18    19    1
    19    18    17    1
    20    25    20    1
    21    25    26    1
    22    33    32    1
    23    27    26    1
    24    27    28    1
    25    20    19   ar
    26    20    21   ar
    27    19    24   ar
    28    30    28    1
    29    26    31    1
    30    21    22   ar
    31    24    32    1
    32    24    23   ar
    33    28    31    1
    34    28    29    1
    35    22    23   ar
