@<TRIPOS>MOLECULE
L3024_0_out.pdbqt
 33 35 0 0 0
SMALL
GASTEIGER

@<TRIPOS>ATOM
      1 C27        -0.3240  -22.5550   -9.9120 C.ar    1  MOL1       -0.0240
      2 C28        -0.4680  -21.6760  -11.0000 C.ar    1  MOL1       -0.0570
      3 C29        -1.1260  -22.0910  -12.1630 C.ar    1  MOL1       -0.0610
      4 C30        -1.6450  -23.3850  -12.2510 C.ar    1  MOL1       -0.0480
      5 C31        -1.5120  -24.2690  -11.1740 C.ar    1  MOL1        0.0180
      6 Br32       -2.2430  -26.0330  -11.2870 Br      1  MOL1       -0.0510
      7 C33        -0.8500  -23.8590  -10.0120 C.ar    1  MOL1       -0.0430
      8  C6         0.4520  -22.1230   -8.6860 C.3     1  MOL1        0.0630
      9  C5        -0.0980  -20.7860   -8.1580 C.3     1  MOL1        0.0510
     10  C1        -3.8010  -20.1390   -7.1350 C.3     1  MOL1        0.0060
     11  N2        -2.4810  -19.9940   -7.7330 N.am    1  MOL1       -0.3590
     12  C3        -1.4460  -20.9590   -7.5190 C.2     1  MOL1        0.2220
     13  O4        -1.6610  -21.9670   -6.7930 O.2     1  MOL1       -0.2750
     14  N7         1.8790  -22.0050   -9.0040 N.am    1  MOL1       -0.3460
     15  C8         2.7320  -21.0510   -8.3680 C.2     1  MOL1        0.2580
     16  O9         2.2680  -20.2610   -7.5040 O.2     1  MOL1       -0.2710
     17 C10         4.1900  -20.9900   -8.7110 C.3     1  MOL1        0.1670
     18 O11         4.9050  -20.2510   -7.7240 O.3     1  MOL1       -0.4800
     19 C12         5.8920  -19.3210   -8.0630 C.ar    1  MOL1        0.1660
     20 C13         7.1240  -19.7330   -8.6210 C.ar    1  MOL1        0.0120
     21 C21         8.0550  -18.7600   -9.0200 C.ar    1  MOL1       -0.0540
     22 C22         7.7900  -17.4040   -8.8260 C.ar    1  MOL1       -0.0580
     23 C23         6.5950  -17.0020   -8.2290 C.ar    1  MOL1       -0.0160
     24 C24         5.6380  -17.9580   -7.8390 C.ar    1  MOL1        0.1610
     25 C14         7.4690  -21.1950   -8.7980 C.3     1  MOL1        0.0280
     26 N15         8.4090  -21.3710   -9.9240 N.3     1  MOL1       -0.2870
     27 C16         8.0470  -22.5310  -10.7560 C.3     1  MOL1        0.0640
     28 C17         9.3030  -23.2890  -10.3740 C.3     1  MOL1        0.2720
     29 F18        10.1800  -23.4770  -11.4280 F       1  MOL1       -0.2040
     30 F19         9.0590  -24.4360   -9.6360 F       1  MOL1       -0.2040
     31 C20         9.6340  -22.0810   -9.5190 C.3     1  MOL1        0.0640
     32 O25         4.4250  -17.5950   -7.2350 O.3     1  MOL1       -0.4930
     33 C26         4.1900  -16.3510   -6.5850 C.3     1  MOL1        0.0780
@<TRIPOS>BOND
     1     4     3   ar
     2     4     5   ar
     3     3     2   ar
     4    29    28    1
     5     6     5    1
     6     5     7   ar
     7     2     1   ar
     8    27    28    1
     9    27    26    1
    10    28    30    1
    11    28    31    1
    12     7     1   ar
    13    26    31    1
    14    26    25    1
    15     1     8    1
    16    21    22   ar
    17    21    20   ar
    18    14     8    1
    19    14    15   am
    20    22    23   ar
    21    25    20    1
    22    17    15    1
    23    17    18    1
    24     8     9    1
    25    20    19   ar
    26    15    16    2
    27    23    24   ar
    28     9    12    1
    29    19    24   ar
    30    19    18    1
    31    24    32    1
    32    11    12   am
    33    11    10    1
    34    12    13    2
    35    32    33    1
