@<TRIPOS>MOLECULE
L3024_0_out.pdbqt
 33 35 0 0 0
SMALL
GASTEIGER

@<TRIPOS>ATOM
      1 C27         7.2770  -19.0310   -9.8360 C.ar    1  MOL1       -0.0240
      2 C28         6.6650  -18.6630   -8.6250 C.ar    1  MOL1       -0.0570
      3 C29         5.7160  -19.5010   -8.0290 C.ar    1  MOL1       -0.0610
      4 C30         5.3690  -20.7110   -8.6350 C.ar    1  MOL1       -0.0480
      5 C31         5.9730  -21.0910   -9.8390 C.ar    1  MOL1        0.0180
      6 Br32        5.5150  -22.7580  -10.6570 Br      1  MOL1       -0.0510
      7 C33         6.9190  -20.2530  -10.4400 C.ar    1  MOL1       -0.0430
      8  C6         8.2480  -18.0870  -10.5110 C.3     1  MOL1        0.0630
      9  C5         7.8960  -17.9460  -12.0030 C.3     1  MOL1        0.0510
     10  C1         5.5950  -14.8710  -11.3520 C.3     1  MOL1        0.0060
     11  N2         6.5240  -15.9740  -11.1560 N.am    1  MOL1       -0.3590
     12  C3         6.9270  -16.8230  -12.2360 C.2     1  MOL1        0.2220
     13  O4         6.4710  -16.6290  -13.3960 O.2     1  MOL1       -0.2750
     14  N7         9.6240  -18.5700  -10.3490 N.am    1  MOL1       -0.3460
     15  C8        10.4920  -18.0880   -9.3220 C.2     1  MOL1        0.2580
     16  O9        10.0940  -17.2060   -8.5160 O.2     1  MOL1       -0.2710
     17 C10        11.8810  -18.6360   -9.1850 C.3     1  MOL1        0.1670
     18 O11        12.1620  -18.9470   -7.8220 O.3     1  MOL1       -0.4800
     19 C12        13.3070  -19.6540   -7.4440 C.ar    1  MOL1        0.1660
     20 C13        14.5070  -18.9820   -7.1170 C.ar    1  MOL1        0.0120
     21 C21        15.6090  -19.7270   -6.6660 C.ar    1  MOL1       -0.0540
     22 C22        15.5380  -21.1180   -6.5860 C.ar    1  MOL1       -0.0580
     23 C23        14.3690  -21.7830   -6.9570 C.ar    1  MOL1       -0.0160
     24 C24        13.2460  -21.0560   -7.3930 C.ar    1  MOL1        0.1610
     25 C14        14.6380  -17.4800   -7.2410 C.3     1  MOL1        0.0280
     26 N15        15.8510  -17.0090   -6.5410 N.3     1  MOL1       -0.2870
     27 C16        15.6900  -15.6300   -6.0490 C.3     1  MOL1        0.0640
     28 C17        16.7530  -15.0930   -6.9880 C.3     1  MOL1        0.2720
     29 F18        17.8840  -14.6300   -6.3400 F       1  MOL1       -0.2040
     30 F19        16.2600  -14.2240   -7.9480 F       1  MOL1       -0.2040
     31 C20        16.8790  -16.5220   -7.4770 C.3     1  MOL1        0.0640
     32 O25        12.0530  -21.6860   -7.7760 O.3     1  MOL1       -0.4930
     33 C26        11.9410  -23.0660   -8.1080 C.3     1  MOL1        0.0780
@<TRIPOS>BOND
     1    13    12    2
     2    12     9    1
     3    12    11   am
     4     9     8    1
     5    10    11    1
     6     6     5    1
     7     8    14    1
     8     8     1    1
     9     7     5   ar
    10     7     1   ar
    11    14    15   am
    12     5     4   ar
    13     1     2   ar
    14    15    17    1
    15    15    16    2
    16    17    18    1
    17     4     3   ar
    18     2     3   ar
    19    33    32    1
    20    30    28    1
    21    18    19    1
    22    32    24    1
    23    31    28    1
    24    31    26    1
    25    19    24   ar
    26    19    20   ar
    27    24    23   ar
    28    25    20    1
    29    25    26    1
    30    20    21   ar
    31    28    29    1
    32    28    27    1
    33    23    22   ar
    34    21    22   ar
    35    26    27    1
