@<TRIPOS>MOLECULE
L3024_0_out.pdbqt
 33 35 0 0 0
SMALL
GASTEIGER

@<TRIPOS>ATOM
      1 C27        18.1440  -20.6290   -6.7820 C.ar    1  MOL1       -0.0240
      2 C28        19.1970  -19.7120   -6.9530 C.ar    1  MOL1       -0.0570
      3 C29        20.4070  -20.1230   -7.5240 C.ar    1  MOL1       -0.0610
      4 C30        20.5770  -21.4500   -7.9280 C.ar    1  MOL1       -0.0480
      5 C31        19.5360  -22.3710   -7.7660 C.ar    1  MOL1        0.0180
      6 Br32       19.7620  -24.1820   -8.3400 Br      1  MOL1       -0.0510
      7 C33        18.3270  -21.9650   -7.1910 C.ar    1  MOL1       -0.0430
      8  C6        16.8660  -20.1940   -6.0970 C.3     1  MOL1        0.0630
      9  C5        15.8370  -19.7340   -7.1450 C.3     1  MOL1        0.0510
     10  C1        13.1130  -22.2780   -6.0110 C.3     1  MOL1        0.0060
     11  N2        14.3980  -21.6380   -6.2540 N.am    1  MOL1       -0.3590
     12  C3        14.4970  -20.3740   -6.9190 C.2     1  MOL1        0.2220
     13  O4        13.4550  -19.7860   -7.3180 O.2     1  MOL1       -0.2750
     14  N7        17.1430  -19.1190   -5.1390 N.am    1  MOL1       -0.3460
     15  C8        16.4900  -19.0320   -3.8700 C.2     1  MOL1        0.2580
     16  O9        15.6320  -19.8920   -3.5380 O.2     1  MOL1       -0.2710
     17 C10        16.8300  -17.9260   -2.9170 C.3     1  MOL1        0.1670
     18 O11        16.8760  -16.6750   -3.6000 O.3     1  MOL1       -0.4800
     19 C12        15.8800  -15.7080   -3.4440 C.ar    1  MOL1        0.1660
     20 C13        14.8700  -15.5350   -4.4190 C.ar    1  MOL1        0.0120
     21 C21        13.8430  -14.6060   -4.1840 C.ar    1  MOL1       -0.0540
     22 C22        13.8430  -13.8280   -3.0270 C.ar    1  MOL1       -0.0580
     23 C23        14.8680  -13.9650   -2.0900 C.ar    1  MOL1       -0.0160
     24 C24        15.8960  -14.9030   -2.2930 C.ar    1  MOL1        0.1610
     25 C14        14.8670  -16.3230   -5.7100 C.3     1  MOL1        0.0280
     26 N15        15.2270  -15.4510   -6.8470 N.3     1  MOL1       -0.2870
     27 C16        15.3290  -16.2130   -8.1030 C.3     1  MOL1        0.0640
     28 C17        16.8200  -15.9660   -8.2180 C.3     1  MOL1        0.2720
     29 F18        17.1690  -15.1670   -9.2930 F       1  MOL1       -0.2040
     30 F19        17.5860  -17.1140   -8.1000 F       1  MOL1       -0.2040
     31 C20        16.6770  -15.2000   -6.9170 C.3     1  MOL1        0.0640
     32 O25        16.9440  -15.0710   -1.3770 O.3     1  MOL1       -0.4930
     33 C26        16.9100  -14.6280   -0.0240 C.3     1  MOL1        0.0780
@<TRIPOS>BOND
     1    29    28    1
     2     6     5    1
     3    28    27    1
     4    28    30    1
     5    28    31    1
     6    27    26    1
     7     4     5   ar
     8     4     3   ar
     9     5     7   ar
    10     3     2   ar
    11    13    12    2
    12     7     1   ar
    13     9    12    1
    14     9     8    1
    15     2     1   ar
    16    12    11   am
    17    31    26    1
    18    26    25    1
    19     1     8    1
    20    11    10    1
    21     8    14    1
    22    25    20    1
    23    14    15   am
    24    20    21   ar
    25    20    19   ar
    26    21    22   ar
    27    15    16    2
    28    15    17    1
    29    18    19    1
    30    18    17    1
    31    19    24   ar
    32    22    23   ar
    33    24    23   ar
    34    24    32    1
    35    32    33    1
