@<TRIPOS>MOLECULE
L3024_0_out.pdbqt
 33 35 0 0 0
SMALL
GASTEIGER

@<TRIPOS>ATOM
      1 C27         8.2940  -20.2570   -9.0860 C.ar    1  MOL1       -0.0240
      2 C28         6.9200  -20.5530   -9.1420 C.ar    1  MOL1       -0.0570
      3 C29         6.4860  -21.8370   -9.4870 C.ar    1  MOL1       -0.0610
      4 C30         7.4170  -22.8370   -9.7800 C.ar    1  MOL1       -0.0480
      5 C31         8.7870  -22.5570   -9.7260 C.ar    1  MOL1        0.0180
      6 Br32       10.0620  -23.9320  -10.1060 Br      1  MOL1       -0.0510
      7 C33         9.2250  -21.2730   -9.3860 C.ar    1  MOL1       -0.0430
      8  C6         8.7540  -18.8480   -8.7830 C.3     1  MOL1        0.0630
      9  C5         7.7630  -17.8310   -9.3770 C.3     1  MOL1        0.0510
     10  C1         5.2460  -16.2570   -6.8540 C.3     1  MOL1        0.0060
     11  N2         5.8300  -17.1000   -7.8880 N.am    1  MOL1       -0.3590
     12  C3         7.1870  -16.9380   -8.3160 C.2     1  MOL1        0.2220
     13  O4         7.9100  -16.0430   -7.8000 O.2     1  MOL1       -0.2750
     14  N7        10.1020  -18.6270   -9.3160 N.am    1  MOL1       -0.3460
     15  C8        11.1400  -18.0090   -8.5520 C.2     1  MOL1        0.2580
     16  O9        10.9160  -17.6180   -7.3760 O.2     1  MOL1       -0.2710
     17 C10        12.5090  -17.8310   -9.1370 C.3     1  MOL1        0.1670
     18 O11        13.4960  -17.8470   -8.1080 O.3     1  MOL1       -0.4800
     19 C12        14.6050  -16.9960   -8.1320 C.ar    1  MOL1        0.1660
     20 C13        15.8290  -17.4060   -8.7070 C.ar    1  MOL1        0.0120
     21 C21        16.8930  -16.4910   -8.7800 C.ar    1  MOL1       -0.0540
     22 C22        16.7600  -15.2080   -8.2490 C.ar    1  MOL1       -0.0580
     23 C23        15.5680  -14.8220   -7.6360 C.ar    1  MOL1       -0.0160
     24 C24        14.4820  -15.7150   -7.5690 C.ar    1  MOL1        0.1610
     25 C14        16.0270  -18.8060   -9.2450 C.3     1  MOL1        0.0280
     26 N15        16.2470  -19.7580   -8.1380 N.3     1  MOL1       -0.2870
     27 C16        17.4440  -20.5860   -8.3650 C.3     1  MOL1        0.0640
     28 C17        16.6290  -21.8570   -8.4980 C.3     1  MOL1        0.2720
     29 F18        16.8440  -22.7650   -7.4760 F       1  MOL1       -0.2040
     30 F19        16.6720  -22.4170   -9.7640 F       1  MOL1       -0.2040
     31 C20        15.4200  -20.9690   -8.2740 C.3     1  MOL1        0.0640
     32 O25        13.2670  -15.3660   -6.9620 O.3     1  MOL1       -0.4930
     33 C26        13.1530  -14.7420   -5.6870 C.3     1  MOL1        0.0780
@<TRIPOS>BOND
     1     6     5    1
     2     4     5   ar
     3     4     3   ar
     4    30    28    1
     5     5     7   ar
     6     3     2   ar
     7     7     1   ar
     8     9     8    1
     9     9    12    1
    10    14     8    1
    11    14    15   am
    12    25    20    1
    13    25    26    1
    14     2     1   ar
    15    17    15    1
    16    17    18    1
    17     1     8    1
    18    21    20   ar
    19    21    22   ar
    20    20    19   ar
    21    15    16    2
    22    28    27    1
    23    28    31    1
    24    28    29    1
    25    27    26    1
    26    12    11   am
    27    12    13    2
    28    31    26    1
    29    22    23   ar
    30    19    18    1
    31    19    24   ar
    32    11    10    1
    33    23    24   ar
    34    24    32    1
    35    32    33    1
