@<TRIPOS>MOLECULE
L3024_0_out.pdbqt
 33 35 0 0 0
SMALL
GASTEIGER

@<TRIPOS>ATOM
      1 C27         7.2940  -17.6530   -8.3370 C.ar    1  MOL1       -0.0240
      2 C28         6.8020  -16.4480   -7.8030 C.ar    1  MOL1       -0.0570
      3 C29         5.5170  -16.3910   -7.2510 C.ar    1  MOL1       -0.0610
      4 C30         4.7140  -17.5340   -7.2260 C.ar    1  MOL1       -0.0480
      5 C31         5.1930  -18.7400   -7.7500 C.ar    1  MOL1        0.0180
      6 Br32        4.1000  -20.3100   -7.6960 Br      1  MOL1       -0.0510
      7 C33         6.4740  -18.7990   -8.3080 C.ar    1  MOL1       -0.0430
      8  C6         8.6550  -17.6880   -8.9980 C.3     1  MOL1        0.0630
      9  C5         8.5100  -18.0580  -10.4850 C.3     1  MOL1        0.0510
     10  C1         9.2650  -21.8570  -10.9000 C.3     1  MOL1        0.0060
     11  N2         8.5970  -20.6010  -10.5880 N.am    1  MOL1       -0.3590
     12  C3         9.2300  -19.3350  -10.8070 C.2     1  MOL1        0.2220
     13  O4        10.3990  -19.2860  -11.2780 O.2     1  MOL1       -0.2750
     14  N7         9.5290  -18.6450   -8.3110 N.am    1  MOL1       -0.3460
     15  C8        10.8370  -18.2980   -7.8510 C.2     1  MOL1        0.2580
     16  O9        11.2890  -17.1370   -8.0360 O.2     1  MOL1       -0.2710
     17 C10        11.6800  -19.3080   -7.1300 C.3     1  MOL1        0.1670
     18 O11        12.6120  -19.9100   -8.0250 O.3     1  MOL1       -0.4800
     19 C12        13.7210  -20.6270   -7.5690 C.ar    1  MOL1        0.1660
     20 C13        15.0030  -20.0350   -7.5150 C.ar    1  MOL1        0.0120
     21 C21        16.0740  -20.7660   -6.9750 C.ar    1  MOL1       -0.0540
     22 C22        15.8880  -22.0790   -6.5420 C.ar    1  MOL1       -0.0580
     23 C23        14.6320  -22.6790   -6.6430 C.ar    1  MOL1       -0.0160
     24 C24        13.5400  -21.9590   -7.1610 C.ar    1  MOL1        0.1610
     25 C14        15.2550  -18.6330   -8.0250 C.3     1  MOL1        0.0280
     26 N15        16.2210  -17.9330   -7.1540 N.3     1  MOL1       -0.2870
     27 C16        15.7270  -16.6040   -6.7540 C.3     1  MOL1        0.0640
     28 C17        16.8170  -15.8870   -7.5260 C.3     1  MOL1        0.2720
     29 F18        17.7160  -15.2110   -6.7190 F       1  MOL1       -0.2040
     30 F19        16.3450  -15.1370   -8.5910 F       1  MOL1       -0.2040
     31 C20        17.2870  -17.2710   -7.9260 C.3     1  MOL1        0.0640
     32 O25        12.2630  -22.5260   -7.2800 O.3     1  MOL1       -0.4930
     33 C26        11.8740  -23.4270   -8.3120 C.3     1  MOL1        0.0780
@<TRIPOS>BOND
     1    13    12    2
     2    10    11    1
     3    12    11   am
     4    12     9    1
     5     9     8    1
     6     8     1    1
     7     8    14    1
     8    30    28    1
     9     1     7   ar
    10     1     2   ar
    11    33    32    1
    12    14    15   am
    13     7     5   ar
    14    16    15    2
    15    25    20    1
    16    25    26    1
    17    18    19    1
    18    18    17    1
    19    31    28    1
    20    31    26    1
    21    15    17    1
    22     2     3   ar
    23     5     6    1
    24     5     4   ar
    25    19    20   ar
    26    19    24   ar
    27    28    27    1
    28    28    29    1
    29    20    21   ar
    30    32    24    1
    31     3     4   ar
    32    24    23   ar
    33    26    27    1
    34    21    22   ar
    35    23    22   ar
