@<TRIPOS>MOLECULE
L3024_0_out.pdbqt
 33 35 0 0 0
SMALL
GASTEIGER

@<TRIPOS>ATOM
      1 C27         7.1990  -16.9660  -10.3360 C.ar    1  MOL1       -0.0240
      2 C28         7.5810  -17.7780  -11.4200 C.ar    1  MOL1       -0.0570
      3 C29         7.1550  -17.4710  -12.7170 C.ar    1  MOL1       -0.0610
      4 C30         6.3450  -16.3550  -12.9450 C.ar    1  MOL1       -0.0480
      5 C31         5.9610  -15.5380  -11.8760 C.ar    1  MOL1        0.0180
      6 Br32        4.8710  -13.9980  -12.1910 Br      1  MOL1       -0.0510
      7 C33         6.3800  -15.8440  -10.5770 C.ar    1  MOL1       -0.0430
      8  C6         7.6030  -17.3450   -8.9280 C.3     1  MOL1        0.0630
      9  C5         6.6690  -16.6650   -7.9100 C.3     1  MOL1        0.0510
     10  C1         4.4530  -19.8440   -7.5130 C.3     1  MOL1        0.0060
     11  N2         5.5410  -18.9480   -7.8790 N.am    1  MOL1       -0.3590
     12  C3         5.5270  -17.5600   -7.5270 C.2     1  MOL1        0.2220
     13  O4         4.5510  -17.0800   -6.8870 O.2     1  MOL1       -0.2750
     14  N7         8.9980  -16.9670   -8.6800 N.am    1  MOL1       -0.3460
     15  C8         9.9140  -17.8180   -7.9870 C.2     1  MOL1        0.2580
     16  O9         9.5350  -18.9370   -7.5490 O.2     1  MOL1       -0.2710
     17 C10        11.3380  -17.3940   -7.7840 C.3     1  MOL1        0.1670
     18 O11        12.2280  -18.3340   -8.3810 O.3     1  MOL1       -0.4800
     19 C12        12.9150  -19.2870   -7.6250 C.ar    1  MOL1        0.1660
     20 C13        13.9620  -18.9120   -6.7520 C.ar    1  MOL1        0.0120
     21 C21        14.5720  -19.8930   -5.9520 C.ar    1  MOL1       -0.0540
     22 C22        14.1850  -21.2290   -6.0510 C.ar    1  MOL1       -0.0580
     23 C23        13.1860  -21.6040   -6.9500 C.ar    1  MOL1       -0.0160
     24 C24        12.5460  -20.6370   -7.7470 C.ar    1  MOL1        0.1610
     25 C14        14.4460  -17.4820   -6.6560 C.3     1  MOL1        0.0280
     26 N15        15.0920  -17.0700   -7.9190 N.3     1  MOL1       -0.2870
     27 C16        16.5520  -16.9470   -7.7660 C.3     1  MOL1        0.0640
     28 C17        16.5220  -15.4480   -7.9920 C.3     1  MOL1        0.2720
     29 F18        17.1440  -15.0510   -9.1630 F       1  MOL1       -0.2040
     30 F19        16.8940  -14.7090   -6.8810 F       1  MOL1       -0.2040
     31 C20        15.0220  -15.6140   -8.1310 C.3     1  MOL1        0.0640
     32 O25        11.5390  -20.9730   -8.6630 O.3     1  MOL1       -0.4930
     33 C26        10.7340  -22.1440   -8.5800 C.3     1  MOL1        0.0780
@<TRIPOS>BOND
     1     4     3   ar
     2     4     5   ar
     3     3     2   ar
     4     6     5    1
     5     5     7   ar
     6     2     1   ar
     7     7     1   ar
     8     1     8    1
     9    29    28    1
    10     8    14    1
    11     8     9    1
    12    14    15   am
    13    32    33    1
    14    32    24    1
    15    18    17    1
    16    18    19    1
    17    31    28    1
    18    31    26    1
    19    28    27    1
    20    28    30    1
    21    15    17    1
    22    15    16    2
    23    26    27    1
    24    26    25    1
    25     9    12    1
    26    11    12   am
    27    11    10    1
    28    24    19   ar
    29    24    23   ar
    30    19    20   ar
    31    12    13    2
    32    23    22   ar
    33    20    25    1
    34    20    21   ar
    35    22    21   ar
