@<TRIPOS>MOLECULE
L3024_0_out.pdbqt
 33 35 0 0 0
SMALL
GASTEIGER

@<TRIPOS>ATOM
      1 C27        13.1240  -19.9860   -7.3450 C.ar    1  MOL1       -0.0240
      2 C28        13.1170  -20.5220   -6.0440 C.ar    1  MOL1       -0.0570
      3 C29        14.1210  -21.4060   -5.6380 C.ar    1  MOL1       -0.0610
      4 C30        15.1410  -21.7650   -6.5230 C.ar    1  MOL1       -0.0480
      5 C31        15.1620  -21.2370   -7.8190 C.ar    1  MOL1        0.0180
      6 Br32       16.5700  -21.7110   -9.0240 Br      1  MOL1       -0.0510
      7 C33        14.1560  -20.3560   -8.2310 C.ar    1  MOL1       -0.0430
      8  C6        11.9940  -19.0880   -7.8010 C.3     1  MOL1        0.0630
      9  C5        12.1310  -17.6990   -7.1510 C.3     1  MOL1        0.0510
     10  C1        15.7100  -16.2390   -6.6680 C.3     1  MOL1        0.0060
     11  N2        14.4060  -16.8300   -6.4050 N.am    1  MOL1       -0.3590
     12  C3        13.4640  -17.0780   -7.4540 C.2     1  MOL1        0.2220
     13  O4        13.7510  -16.7780   -8.6450 O.2     1  MOL1       -0.2750
     14  N7        10.6990  -19.6890   -7.4650 N.am    1  MOL1       -0.3460
     15  C8         9.4990  -19.3760   -8.1740 C.2     1  MOL1        0.2580
     16  O9         9.5190  -18.5470   -9.1230 O.2     1  MOL1       -0.2710
     17 C10         8.2060  -20.0400   -7.8070 C.3     1  MOL1        0.1670
     18 O11         7.1390  -19.5280   -8.6010 O.3     1  MOL1       -0.4800
     19 C12         6.0330  -20.3090   -8.9500 C.ar    1  MOL1        0.1660
     20 C13         6.0850  -21.2030  -10.0440 C.ar    1  MOL1        0.0120
     21 C21         4.9770  -22.0250  -10.3090 C.ar    1  MOL1       -0.0540
     22 C22         3.8220  -21.9290   -9.5340 C.ar    1  MOL1       -0.0580
     23 C23         3.7550  -21.0110   -8.4860 C.ar    1  MOL1       -0.0160
     24 C24         4.8590  -20.1900   -8.1890 C.ar    1  MOL1        0.1610
     25 C14         7.3000  -21.2970  -10.9390 C.3     1  MOL1        0.0280
     26 N15         7.8460  -22.6700  -10.9260 N.3     1  MOL1       -0.2870
     27 C16         8.1940  -23.1010   -9.5620 C.3     1  MOL1        0.0640
     28 C17         9.6750  -23.1600   -9.8800 C.3     1  MOL1        0.2720
     29 F18        10.1990  -24.4400   -9.8490 F       1  MOL1       -0.2040
     30 F19        10.4310  -22.2270   -9.1880 F       1  MOL1       -0.2040
     31 C20         9.2780  -22.7020  -11.2690 C.3     1  MOL1        0.0640
     32 O25         4.8320  -19.2540   -7.1450 O.3     1  MOL1       -0.4930
     33 C26         4.8310  -17.8420   -7.3290 C.3     1  MOL1        0.0780
@<TRIPOS>BOND
     1    31    26    1
     2    31    28    1
     3    25    26    1
     4    25    20    1
     5    26    27    1
     6    21    20   ar
     7    21    22   ar
     8    20    19   ar
     9    28    29    1
    10    28    27    1
    11    28    30    1
    12    22    23   ar
    13    16    15    2
    14     6     5    1
    15    19    18    1
    16    19    24   ar
    17    13    12    2
    18    18    17    1
    19    23    24   ar
    20     7     5   ar
    21     7     1   ar
    22    24    32    1
    23    15    17    1
    24    15    14   am
    25     5     4   ar
    26     8    14    1
    27     8     1    1
    28     8     9    1
    29    12     9    1
    30    12    11   am
    31     1     2   ar
    32    33    32    1
    33    10    11    1
    34     4     3   ar
    35     2     3   ar
