@<TRIPOS>MOLECULE
L3024_0_out.pdbqt
 33 35 0 0 0
SMALL
GASTEIGER

@<TRIPOS>ATOM
      1 C27         2.5200  -21.8280   -8.7290 C.ar    1  MOL1       -0.0240
      2 C28         1.8270  -20.9690   -7.8570 C.ar    1  MOL1       -0.0570
      3 C29         0.4480  -20.7790   -8.0000 C.ar    1  MOL1       -0.0610
      4 C30        -0.2510  -21.4440   -9.0110 C.ar    1  MOL1       -0.0480
      5 C31         0.4270  -22.3040   -9.8830 C.ar    1  MOL1        0.0180
      6 Br32       -0.5340  -23.2300  -11.2540 Br      1  MOL1       -0.0510
      7 C33         1.8060  -22.4920   -9.7470 C.ar    1  MOL1       -0.0430
      8  C6         4.0230  -21.9720   -8.6140 C.3     1  MOL1        0.0630
      9  C5         4.5040  -21.4120   -7.2630 C.3     1  MOL1        0.0510
     10  C1         5.6110  -17.7010   -7.6780 C.3     1  MOL1        0.0060
     11  N2         4.7940  -18.8940   -7.5110 N.am    1  MOL1       -0.3590
     12  C3         5.3730  -20.2020   -7.4470 C.2     1  MOL1        0.2220
     13  O4         6.6230  -20.3460   -7.5410 O.2     1  MOL1       -0.2750
     14  N7         4.6850  -21.2800   -9.7250 N.am    1  MOL1       -0.3460
     15  C8         5.7040  -21.8960  -10.5160 C.2     1  MOL1        0.2580
     16  O9         6.0750  -23.0740  -10.2690 O.2     1  MOL1       -0.2710
     17 C10         6.3300  -21.1530  -11.6580 C.3     1  MOL1        0.1670
     18 O11         7.7520  -21.1910  -11.5570 O.3     1  MOL1       -0.4800
     19 C12         8.4540  -20.3790  -10.6630 C.ar    1  MOL1        0.1660
     20 C13         9.1720  -20.9360   -9.5790 C.ar    1  MOL1        0.0120
     21 C21         9.9280  -20.0900   -8.7510 C.ar    1  MOL1       -0.0540
     22 C22         9.9340  -18.7110   -8.9640 C.ar    1  MOL1       -0.0580
     23 C23         9.1850  -18.1590  -10.0030 C.ar    1  MOL1       -0.0160
     24 C24         8.4350  -18.9890  -10.8580 C.ar    1  MOL1        0.1610
     25 C14         9.1470  -22.4200   -9.2850 C.3     1  MOL1        0.0280
     26 N15        10.3710  -23.0680   -9.7970 N.3     1  MOL1       -0.2870
     27 C16        10.1270  -24.4720  -10.1680 C.3     1  MOL1        0.0640
     28 C17        11.0310  -24.9960   -9.0690 C.3     1  MOL1        0.2720
     29 F18        12.1710  -25.6230   -9.5400 F       1  MOL1       -0.2040
     30 F19        10.3610  -25.7100   -8.0890 F       1  MOL1       -0.2040
     31 C20        11.2470  -23.5380   -8.7100 C.3     1  MOL1        0.0640
     32 O25         7.6680  -18.4730  -11.9130 O.3     1  MOL1       -0.4930
     33 C26         7.0420  -17.1950  -11.9040 C.3     1  MOL1        0.0780
@<TRIPOS>BOND
     1    32    33    1
     2    32    24    1
     3    17    18    1
     4    17    15    1
     5    18    19    1
     6     6     5    1
     7    24    19   ar
     8    24    23   ar
     9    19    20   ar
    10    15    16    2
    11    15    14   am
    12    27    26    1
    13    27    28    1
    14    23    22   ar
    15     5     7   ar
    16     5     4   ar
    17    26    25    1
    18    26    31    1
    19     7     1   ar
    20    14     8    1
    21    20    25    1
    22    20    21   ar
    23    29    28    1
    24    28    31    1
    25    28    30    1
    26     4     3   ar
    27    22    21   ar
    28     1     8    1
    29     1     2   ar
    30     8     9    1
    31     3     2   ar
    32    10    11    1
    33    13    12    2
    34    11    12   am
    35    12     9    1
