@<TRIPOS>MOLECULE
L3024_0_out.pdbqt
 33 35 0 0 0
SMALL
GASTEIGER

@<TRIPOS>ATOM
      1 C27        15.4050  -18.6590   -2.4200 C.ar    1  MOL1       -0.0240
      2 C28        15.4180  -20.0250   -2.0830 C.ar    1  MOL1       -0.0570
      3 C29        14.9500  -20.4500   -0.8350 C.ar    1  MOL1       -0.0610
      4 C30        14.4660  -19.5180    0.0870 C.ar    1  MOL1       -0.0480
      5 C31        14.4440  -18.1560   -0.2370 C.ar    1  MOL1        0.0180
      6 Br32       13.7610  -16.8840    1.0170 Br      1  MOL1       -0.0510
      7 C33        14.9160  -17.7270   -1.4820 C.ar    1  MOL1       -0.0430
      8  C6        15.9800  -18.2000   -3.7430 C.3     1  MOL1        0.0630
      9  C5        15.2310  -16.9490   -4.2380 C.3     1  MOL1        0.0510
     10  C1        18.0060  -14.8240   -5.9570 C.3     1  MOL1        0.0060
     11  N2        17.0830  -15.9040   -5.6390 N.am    1  MOL1       -0.3590
     12  C3        16.1780  -15.8220   -4.5330 C.2     1  MOL1        0.2220
     13  O4        16.1680  -14.7960   -3.7990 O.2     1  MOL1       -0.2750
     14  N7        15.8960  -19.2780   -4.7350 N.am    1  MOL1       -0.3460
     15  C8        17.0360  -19.7500   -5.4550 C.2     1  MOL1        0.2580
     16  O9        18.1690  -19.2340   -5.2610 O.2     1  MOL1       -0.2710
     17 C10        16.8990  -20.8730   -6.4400 C.3     1  MOL1        0.1670
     18 O11        16.2830  -20.4120   -7.6400 O.3     1  MOL1       -0.4800
     19 C12        16.8020  -19.3450   -8.3780 C.ar    1  MOL1        0.1660
     20 C13        16.1080  -18.1170   -8.4740 C.ar    1  MOL1        0.0120
     21 C21        16.7040  -17.0460   -9.1600 C.ar    1  MOL1       -0.0540
     22 C22        17.9430  -17.2040   -9.7810 C.ar    1  MOL1       -0.0580
     23 C23        18.6020  -18.4320   -9.7270 C.ar    1  MOL1       -0.0160
     24 C24        18.0350  -19.5140   -9.0290 C.ar    1  MOL1        0.1610
     25 C14        14.7390  -17.9250   -7.8590 C.3     1  MOL1        0.0280
     26 N15        13.6840  -18.1670   -8.8640 N.3     1  MOL1       -0.2870
     27 C16        12.4760  -17.3730   -8.5840 C.3     1  MOL1        0.0640
     28 C17        11.6440  -18.6060   -8.2910 C.3     1  MOL1        0.2720
     29 F18        10.6390  -18.8300   -9.2160 F       1  MOL1       -0.2040
     30 F19        11.2250  -18.6960   -6.9740 F       1  MOL1       -0.2040
     31 C20        12.9120  -19.3880   -8.5750 C.3     1  MOL1        0.0640
     32 O25        18.6640  -20.7640   -8.9520 O.3     1  MOL1       -0.4930
     33 C26        20.0480  -20.9870   -9.2060 C.3     1  MOL1        0.0780
@<TRIPOS>BOND
     1    22    23   ar
     2    22    21   ar
     3    23    24   ar
     4    29    28    1
     5    33    32    1
     6    21    20   ar
     7    24    32    1
     8    24    19   ar
     9    26    27    1
    10    26    31    1
    11    26    25    1
    12    27    28    1
    13    31    28    1
    14    20    19   ar
    15    20    25    1
    16    19    18    1
    17    28    30    1
    18    18    17    1
    19    17    15    1
    20    10    11    1
    21    11    12   am
    22    15    16    2
    23    15    14   am
    24    14     8    1
    25    12     9    1
    26    12    13    2
    27     9     8    1
    28     8     1    1
    29     1     2   ar
    30     1     7   ar
    31     2     3   ar
    32     7     5   ar
    33     3     4   ar
    34     5     4   ar
    35     5     6    1
