@<TRIPOS>MOLECULE
L3024_0_out.pdbqt
 33 35 0 0 0
SMALL
GASTEIGER

@<TRIPOS>ATOM
      1 C27         6.5340  -20.1670   -9.4590 C.ar    1  MOL1       -0.0240
      2 C28         5.8440  -21.2270   -8.8440 C.ar    1  MOL1       -0.0570
      3 C29         4.9930  -20.9830   -7.7610 C.ar    1  MOL1       -0.0610
      4 C30         4.8230  -19.6810   -7.2820 C.ar    1  MOL1       -0.0480
      5 C31         5.5020  -18.6170   -7.8860 C.ar    1  MOL1        0.0180
      6 Br32        5.2520  -16.8320   -7.2430 Br      1  MOL1       -0.0510
      7 C33         6.3580  -18.8580   -8.9660 C.ar    1  MOL1       -0.0430
      8  C6         7.5080  -20.4480  -10.5830 C.3     1  MOL1        0.0630
      9  C5         7.3100  -21.8820  -11.1060 C.3     1  MOL1        0.0510
     10  C1         9.6080  -24.4070   -9.2300 C.3     1  MOL1        0.0060
     11  N2         8.4890  -23.5420   -9.5760 N.am    1  MOL1       -0.3590
     12  C3         8.4840  -22.7570  -10.7730 C.2     1  MOL1        0.2220
     13  O4         9.4680  -22.7980  -11.5610 O.2     1  MOL1       -0.2750
     14  N7         8.8870  -20.2530  -10.1210 N.am    1  MOL1       -0.3460
     15  C8         9.7720  -19.3040  -10.7210 C.2     1  MOL1        0.2580
     16  O9         9.3850  -18.6000  -11.6910 O.2     1  MOL1       -0.2710
     17 C10        11.1640  -19.1260  -10.1920 C.3     1  MOL1        0.1670
     18 O11        11.1740  -19.2270   -8.7700 O.3     1  MOL1       -0.4800
     19 C12        11.6950  -18.2150   -7.9600 C.ar    1  MOL1        0.1660
     20 C13        13.0510  -18.2260   -7.5570 C.ar    1  MOL1        0.0120
     21 C21        13.5520  -17.1480   -6.8080 C.ar    1  MOL1       -0.0540
     22 C22        12.7120  -16.1020   -6.4240 C.ar    1  MOL1       -0.0580
     23 C23        11.3640  -16.1190   -6.7790 C.ar    1  MOL1       -0.0160
     24 C24        10.8440  -17.1780   -7.5460 C.ar    1  MOL1        0.1610
     25 C14        13.9770  -19.3680   -7.9100 C.3     1  MOL1        0.0280
     26 N15        13.7370  -20.5210   -7.0180 N.3     1  MOL1       -0.2870
     27 C16        14.9470  -20.8810   -6.2600 C.3     1  MOL1        0.0640
     28 C17        15.0790  -22.2180   -6.9620 C.3     1  MOL1        0.2720
     29 F18        14.8760  -23.3050   -6.1300 F       1  MOL1       -0.2040
     30 F19        16.2100  -22.3220   -7.7560 F       1  MOL1       -0.2040
     31 C20        13.8390  -21.8060   -7.7320 C.3     1  MOL1        0.0640
     32 O25         9.4940  -17.2320   -7.9230 O.3     1  MOL1       -0.4930
     33 C26         8.7050  -16.0960   -8.2590 C.3     1  MOL1        0.0780
@<TRIPOS>BOND
     1    16    15    2
     2    13    12    2
     3     9    12    1
     4     9     8    1
     5    12    11   am
     6    15    17    1
     7    15    14   am
     8     8    14    1
     9     8     1    1
    10    17    18    1
    11    11    10    1
    12     1     7   ar
    13     1     2   ar
    14     7     5   ar
    15     2     3   ar
    16    18    19    1
    17    33    32    1
    18    19    20   ar
    19    19    24   ar
    20    32    24    1
    21    25    20    1
    22    25    26    1
    23     5     4   ar
    24     5     6    1
    25     3     4   ar
    26    30    28    1
    27    31    26    1
    28    31    28    1
    29    20    21   ar
    30    24    23   ar
    31    26    27    1
    32    28    27    1
    33    28    29    1
    34    21    22   ar
    35    23    22   ar
