@<TRIPOS>MOLECULE
L3024_0_out.pdbqt
 33 35 0 0 0
SMALL
GASTEIGER

@<TRIPOS>ATOM
      1 C27        14.3980  -16.7730   -6.0700 C.ar    1  MOL1       -0.0240
      2 C28        13.6790  -15.5630   -6.0710 C.ar    1  MOL1       -0.0570
      3 C29        13.7880  -14.6750   -4.9950 C.ar    1  MOL1       -0.0610
      4 C30        14.6130  -14.9850   -3.9110 C.ar    1  MOL1       -0.0480
      5 C31        15.3360  -16.1830   -3.8990 C.ar    1  MOL1        0.0180
      6 Br32       16.4820  -16.5960   -2.4240 Br      1  MOL1       -0.0510
      7 C33        15.2250  -17.0760   -4.9700 C.ar    1  MOL1       -0.0430
      8  C6        14.2180  -17.7610   -7.2020 C.3     1  MOL1        0.0630
      9  C5        14.8560  -17.2080   -8.4900 C.3     1  MOL1        0.0510
     10  C1        18.3950  -18.6430   -9.2570 C.3     1  MOL1        0.0060
     11  N2        17.3190  -17.7830   -8.7860 N.am    1  MOL1       -0.3590
     12  C3        15.9420  -18.1120   -8.9980 C.2     1  MOL1        0.2220
     13  O4        15.6320  -19.1690   -9.6120 O.2     1  MOL1       -0.2750
     14  N7        12.7940  -18.0410   -7.4110 N.am    1  MOL1       -0.3460
     15  C8        12.3030  -19.3500   -7.7080 C.2     1  MOL1        0.2580
     16  O9        13.1010  -20.3190   -7.8120 O.2     1  MOL1       -0.2710
     17 C10        10.8330  -19.5870   -7.8870 C.3     1  MOL1        0.1670
     18 O11        10.5520  -19.9930   -9.2240 O.3     1  MOL1       -0.4800
     19 C12         9.4890  -20.8460   -9.5310 C.ar    1  MOL1        0.1660
     20 C13         8.2230  -20.3350   -9.8980 C.ar    1  MOL1        0.0120
     21 C21         7.2060  -21.2280  -10.2750 C.ar    1  MOL1       -0.0540
     22 C22         7.4250  -22.6050  -10.2440 C.ar    1  MOL1       -0.0580
     23 C23         8.6600  -23.1090   -9.8340 C.ar    1  MOL1       -0.0160
     24 C24         9.7000  -22.2340   -9.4700 C.ar    1  MOL1        0.1610
     25 C14         7.9310  -18.8510   -9.8920 C.3     1  MOL1        0.0280
     26 N15         7.6280  -18.3890   -8.5220 N.3     1  MOL1       -0.2870
     27 C16         6.1770  -18.2830   -8.2950 C.3     1  MOL1        0.0640
     28 C17         6.2370  -16.7760   -8.1440 C.3     1  MOL1        0.2720
     29 F18         5.9340  -16.3330   -6.8690 F       1  MOL1       -0.2040
     30 F19         5.5750  -16.0890   -9.1490 F       1  MOL1       -0.2040
     31 C20         7.7240  -16.9250   -8.3950 C.3     1  MOL1        0.0640
     32 O25        10.9540  -22.7000   -9.0510 O.3     1  MOL1       -0.4930
     33 C26        11.1930  -23.9950   -8.5100 C.3     1  MOL1        0.0780
@<TRIPOS>BOND
     1    21    22   ar
     2    21    20   ar
     3    22    23   ar
     4    20    25    1
     5    20    19   ar
     6    25    26    1
     7    23    24   ar
     8    13    12    2
     9    19    24   ar
    10    19    18    1
    11    24    32    1
    12    10    11    1
    13    18    17    1
    14    30    28    1
    15    32    33    1
    16    12    11   am
    17    12     9    1
    18    26    31    1
    19    26    27    1
    20     9     8    1
    21    31    28    1
    22    27    28    1
    23    28    29    1
    24    17    15    1
    25    16    15    2
    26    15    14   am
    27    14     8    1
    28     8     1    1
    29     2     1   ar
    30     2     3   ar
    31     1     7   ar
    32     3     4   ar
    33     7     5   ar
    34     4     5   ar
    35     5     6    1
