@<TRIPOS>MOLECULE
L3024_0_out.pdbqt
 33 35 0 0 0
SMALL
GASTEIGER

@<TRIPOS>ATOM
      1 C27        15.7280  -17.8900   -3.0310 C.ar    1  MOL1       -0.0240
      2 C28        14.8780  -16.9340   -2.4450 C.ar    1  MOL1       -0.0570
      3 C29        15.2300  -15.5800   -2.4440 C.ar    1  MOL1       -0.0610
      4 C30        16.4310  -15.1680   -3.0280 C.ar    1  MOL1       -0.0480
      5 C31        17.2840  -16.1080   -3.6170 C.ar    1  MOL1        0.0180
      6 Br32       18.9170  -15.5390   -4.4350 Br      1  MOL1       -0.0510
      7 C33        16.9380  -17.4630   -3.6150 C.ar    1  MOL1       -0.0430
      8  C6        15.3750  -19.3600   -2.9630 C.3     1  MOL1        0.0630
      9  C5        16.0200  -20.0000   -1.7210 C.3     1  MOL1        0.0510
     10  C1        13.2630  -21.4240    0.6340 C.3     1  MOL1        0.0060
     11  N2        14.2150  -21.2780   -0.4570 N.am    1  MOL1       -0.3590
     12  C3        15.0400  -20.1160   -0.5890 C.2     1  MOL1        0.2220
     13  O4        14.9500  -19.1780    0.2500 O.2     1  MOL1       -0.2750
     14  N7        15.8130  -20.0450   -4.1840 N.am    1  MOL1       -0.3460
     15  C8        14.9060  -20.7310   -5.0500 C.2     1  MOL1        0.2580
     16  O9        13.6780  -20.7750   -4.7760 O.2     1  MOL1       -0.2710
     17 C10        15.4040  -21.3920   -6.2990 C.3     1  MOL1        0.1670
     18 O11        15.1820  -20.5530   -7.4310 O.3     1  MOL1       -0.4800
     19 C12        15.5030  -19.1930   -7.4190 C.ar    1  MOL1        0.1660
     20 C13        14.4930  -18.2040   -7.4080 C.ar    1  MOL1        0.0120
     21 C21        14.8600  -16.8510   -7.3160 C.ar    1  MOL1       -0.0540
     22 C22        16.2050  -16.4830   -7.2860 C.ar    1  MOL1       -0.0580
     23 C23        17.2000  -17.4580   -7.3480 C.ar    1  MOL1       -0.0160
     24 C24        16.8570  -18.8210   -7.4200 C.ar    1  MOL1        0.1610
     25 C14        13.0260  -18.5630   -7.4930 C.3     1  MOL1        0.0280
     26 N15        12.2490  -17.4300   -8.0360 N.3     1  MOL1       -0.2870
     27 C16        11.1100  -17.0880   -7.1670 C.3     1  MOL1        0.0640
     28 C17        10.0930  -17.5060   -8.2120 C.3     1  MOL1        0.2720
     29 F18         9.3460  -16.4540   -8.7120 F       1  MOL1       -0.2040
     30 F19         9.3370  -18.6070   -7.8450 F       1  MOL1       -0.2040
     31 C20        11.2920  -17.8580   -9.0710 C.3     1  MOL1        0.0640
     32 O25        17.8270  -19.8310   -7.4850 O.3     1  MOL1       -0.4930
     33 C26        19.2220  -19.6230   -7.2860 C.3     1  MOL1        0.0780
@<TRIPOS>BOND
     1    31    28    1
     2    31    26    1
     3    29    28    1
     4    28    30    1
     5    28    27    1
     6    26    25    1
     7    26    27    1
     8    25    20    1
     9    32    24    1
    10    32    33    1
    11    18    19    1
    12    18    17    1
    13    24    19   ar
    14    24    23   ar
    15    19    20   ar
    16    20    21   ar
    17    23    22   ar
    18    21    22   ar
    19    17    15    1
    20    15    16    2
    21    15    14   am
    22     6     5    1
    23    14     8    1
    24     5     7   ar
    25     5     4   ar
    26     7     1   ar
    27     1     8    1
    28     1     2   ar
    29     4     3   ar
    30     8     9    1
    31     2     3   ar
    32     9    12    1
    33    12    11   am
    34    12    13    2
    35    11    10    1
