@<TRIPOS>MOLECULE
L3024_0_out.pdbqt
 33 35 0 0 0
SMALL
GASTEIGER

@<TRIPOS>ATOM
      1 C27         7.0800  -17.7440   -9.1650 C.ar    1  MOL1       -0.0240
      2 C28         6.3610  -17.5970   -7.9640 C.ar    1  MOL1       -0.0570
      3 C29         5.4190  -16.5730   -7.8250 C.ar    1  MOL1       -0.0610
      4 C30         5.1850  -15.6860   -8.8790 C.ar    1  MOL1       -0.0480
      5 C31         5.8910  -15.8220  -10.0800 C.ar    1  MOL1        0.0180
      6 Br32        5.5550  -14.6210  -11.5300 Br      1  MOL1       -0.0510
      7 C33         6.8380  -16.8420  -10.2210 C.ar    1  MOL1       -0.0430
      8  C6         8.1490  -18.8090   -9.2820 C.3     1  MOL1        0.0630
      9  C5         7.5950  -20.1650   -8.8100 C.3     1  MOL1        0.0510
     10  C1         9.3940  -23.3200  -10.2180 C.3     1  MOL1        0.0060
     11  N2         8.9920  -22.2270   -9.3450 N.am    1  MOL1       -0.3590
     12  C3         7.9960  -21.2760   -9.7370 C.2     1  MOL1        0.2220
     13  O4         7.4430  -21.3690  -10.8670 O.2     1  MOL1       -0.2750
     14  N7         9.3300  -18.4320   -8.4980 N.am    1  MOL1       -0.3460
     15  C8        10.6530  -18.4600   -9.0390 C.2     1  MOL1        0.2580
     16  O9        10.8450  -18.8280  -10.2280 O.2     1  MOL1       -0.2710
     17 C10        11.8230  -18.0390   -8.2020 C.3     1  MOL1        0.1670
     18 O11        12.8360  -19.0420   -8.2210 O.3     1  MOL1       -0.4800
     19 C12        13.4650  -19.4830   -7.0530 C.ar    1  MOL1        0.1660
     20 C13        14.5170  -18.7440   -6.4660 C.ar    1  MOL1        0.0120
     21 C21        15.0670  -19.1830   -5.2490 C.ar    1  MOL1       -0.0540
     22 C22        14.6150  -20.3590   -4.6510 C.ar    1  MOL1       -0.0580
     23 C23        13.6110  -21.1130   -5.2590 C.ar    1  MOL1       -0.0160
     24 C24        13.0310  -20.6830   -6.4670 C.ar    1  MOL1        0.1610
     25 C14        15.0700  -17.4930   -7.1120 C.3     1  MOL1        0.0280
     26 N15        16.1650  -16.9310   -6.2950 N.3     1  MOL1       -0.2870
     27 C16        15.9290  -15.5120   -5.9760 C.3     1  MOL1        0.0640
     28 C17        17.1160  -15.0550   -6.8000 C.3     1  MOL1        0.2720
     29 F18        18.1390  -14.5070   -6.0450 F       1  MOL1       -0.2040
     30 F19        16.7680  -14.2970   -7.9070 F       1  MOL1       -0.2040
     31 C20        17.3180  -16.5240   -7.1160 C.3     1  MOL1        0.0640
     32 O25        12.0200  -21.4130   -7.1100 O.3     1  MOL1       -0.4930
     33 C26        12.2400  -22.6000   -7.8640 C.3     1  MOL1        0.0780
@<TRIPOS>BOND
     1     6     5    1
     2    13    12    2
     3    16    15    2
     4     7     5   ar
     5     7     1   ar
     6    10    11    1
     7     5     4   ar
     8    12    11   am
     9    12     9    1
    10     8     1    1
    11     8     9    1
    12     8    14    1
    13     1     2   ar
    14    15    14   am
    15    15    17    1
    16     4     3   ar
    17    18    17    1
    18    18    19    1
    19     2     3   ar
    20    30    28    1
    21    33    32    1
    22    31    28    1
    23    31    26    1
    24    25    20    1
    25    25    26    1
    26    32    24    1
    27    19    24   ar
    28    19    20   ar
    29    28    29    1
    30    28    27    1
    31    24    23   ar
    32    20    21   ar
    33    26    27    1
    34    23    22   ar
    35    21    22   ar
