@<TRIPOS>MOLECULE
L3024_0_out.pdbqt
 33 35 0 0 0
SMALL
GASTEIGER

@<TRIPOS>ATOM
      1 C27         9.0110  -18.3290   -9.1300 C.ar    1  MOL1       -0.0240
      2 C28         9.7730  -18.8320  -10.2000 C.ar    1  MOL1       -0.0570
      3 C29        11.1490  -18.5860  -10.2660 C.ar    1  MOL1       -0.0610
      4 C30        11.7760  -17.8360   -9.2680 C.ar    1  MOL1       -0.0480
      5 C31        11.0300  -17.3320   -8.1960 C.ar    1  MOL1        0.0180
      6 Br32       11.8930  -16.3230   -6.8190 Br      1  MOL1       -0.0510
      7 C33         9.6540  -17.5710   -8.1290 C.ar    1  MOL1       -0.0430
      8  C6         7.5120  -18.5380   -9.1030 C.3     1  MOL1        0.0630
      9  C5         7.1220  -19.6800  -10.0580 C.3     1  MOL1        0.0510
     10  C1         4.9570  -21.4780   -7.3650 C.3     1  MOL1        0.0060
     11  N2         5.9150  -20.5900   -8.0090 N.am    1  MOL1       -0.3590
     12  C3         6.1340  -20.6160   -9.4230 C.2     1  MOL1        0.2220
     13  O4         5.4940  -21.4250  -10.1480 O.2     1  MOL1       -0.2750
     14  N7         6.8200  -17.2980   -9.4720 N.am    1  MOL1       -0.3460
     15  C8         6.6130  -16.9070  -10.8310 C.2     1  MOL1        0.2580
     16  O9         7.0400  -17.6280  -11.7710 O.2     1  MOL1       -0.2710
     17 C10         5.8760  -15.6420  -11.1520 C.3     1  MOL1        0.1670
     18 O11         5.4840  -14.9740   -9.9540 O.3     1  MOL1       -0.4800
     19 C12         4.1420  -14.7820   -9.6180 C.ar    1  MOL1        0.1660
     20 C13         3.2300  -14.2180  -10.5390 C.ar    1  MOL1        0.0120
     21 C21         1.8740  -14.1170  -10.1870 C.ar    1  MOL1       -0.0540
     22 C22         1.4380  -14.5220   -8.9250 C.ar    1  MOL1       -0.0580
     23 C23         2.3480  -15.0310   -7.9990 C.ar    1  MOL1       -0.0160
     24 C24         3.7080  -15.1610   -8.3370 C.ar    1  MOL1        0.1610
     25 C14         3.6750  -13.7190  -11.8960 C.3     1  MOL1        0.0280
     26 N15         4.1640  -12.3290  -11.7990 N.3     1  MOL1       -0.2870
     27 C16         3.1920  -11.4590  -11.1150 C.3     1  MOL1        0.0640
     28 C17         2.9290  -10.6450  -12.3660 C.3     1  MOL1        0.2720
     29 F18         3.3650   -9.3340  -12.2770 F       1  MOL1       -0.2040
     30 F19         1.6400  -10.7750  -12.8560 F       1  MOL1       -0.2040
     31 C20         3.9260  -11.5680  -13.0380 C.3     1  MOL1        0.0640
     32 O25         4.6550  -15.6670   -7.4340 O.3     1  MOL1       -0.4930
     33 C26         4.6000  -16.9660   -6.8520 C.3     1  MOL1        0.0780
@<TRIPOS>BOND
     1    31    28    1
     2    31    26    1
     3    30    28    1
     4    28    29    1
     5    28    27    1
     6    25    26    1
     7    25    20    1
     8    26    27    1
     9    16    15    2
    10    17    15    1
    11    17    18    1
    12    15    14   am
    13    20    21   ar
    14    20    19   ar
    15     3     2   ar
    16     3     4   ar
    17     2     1   ar
    18    21    22   ar
    19    13    12    2
    20     9    12    1
    21     9     8    1
    22    18    19    1
    23    19    24   ar
    24    14     8    1
    25    12    11   am
    26     4     5   ar
    27     1     8    1
    28     1     7   ar
    29    22    23   ar
    30    24    23   ar
    31    24    32    1
    32     5     7   ar
    33     5     6    1
    34    11    10    1
    35    32    33    1
