@<TRIPOS>MOLECULE
L3024_0_out.pdbqt
 33 35 0 0 0
SMALL
GASTEIGER

@<TRIPOS>ATOM
      1 C27        15.5020  -16.0510   -4.7640 C.ar    1  MOL1       -0.0240
      2 C28        15.3690  -17.3020   -4.1340 C.ar    1  MOL1       -0.0570
      3 C29        16.4980  -17.9780   -3.6570 C.ar    1  MOL1       -0.0610
      4 C30        17.7680  -17.4130   -3.8040 C.ar    1  MOL1       -0.0480
      5 C31        17.9140  -16.1680   -4.4260 C.ar    1  MOL1        0.0180
      6 Br32       19.6500  -15.3860   -4.6080 Br      1  MOL1       -0.0510
      7 C33        16.7880  -15.4920   -4.9090 C.ar    1  MOL1       -0.0430
      8  C6        14.2860  -15.3610   -5.3410 C.3     1  MOL1        0.0630
      9  C5        13.2720  -15.0570   -4.2230 C.3     1  MOL1        0.0510
     10  C1        14.6350  -13.7460   -0.8180 C.3     1  MOL1        0.0060
     11  N2        14.0620  -14.6040   -1.8440 N.am    1  MOL1       -0.3590
     12  C3        13.8560  -14.1430   -3.1840 C.2     1  MOL1        0.2220
     13  O4        14.1680  -12.9630   -3.5020 O.2     1  MOL1       -0.2750
     14  N7        13.6730  -16.1960   -6.3800 N.am    1  MOL1       -0.3460
     15  C8        14.1020  -16.1660   -7.7430 C.2     1  MOL1        0.2580
     16  O9        15.0340  -15.3960   -8.0990 O.2     1  MOL1       -0.2710
     17 C10        13.4590  -17.0590   -8.7600 C.3     1  MOL1        0.1670
     18 O11        14.0280  -18.3650   -8.7080 O.3     1  MOL1       -0.4800
     19 C12        13.6510  -19.3010   -7.7410 C.ar    1  MOL1        0.1660
     20 C13        12.3210  -19.7760   -7.6630 C.ar    1  MOL1        0.0120
     21 C21        12.0050  -20.7740   -6.7270 C.ar    1  MOL1       -0.0540
     22 C22        12.9770  -21.2580   -5.8510 C.ar    1  MOL1       -0.0580
     23 C23        14.2760  -20.7520   -5.8970 C.ar    1  MOL1       -0.0160
     24 C24        14.6220  -19.7660   -6.8390 C.ar    1  MOL1        0.1610
     25 C14        11.2290  -19.2370   -8.5590 C.3     1  MOL1        0.0280
     26 N15        10.1550  -18.6230   -7.7510 N.3     1  MOL1       -0.2870
     27 C16         8.8230  -18.9210   -8.3040 C.3     1  MOL1        0.0640
     28 C17         8.5640  -17.4700   -8.6570 C.3     1  MOL1        0.2720
     29 F18         7.5450  -16.8920   -7.9200 F       1  MOL1       -0.2040
     30 F19         8.4730  -17.2350  -10.0200 F       1  MOL1       -0.2040
     31 C20         9.9450  -17.2050   -8.0910 C.3     1  MOL1        0.0640
     32 O25        15.9160  -19.2300   -6.9170 O.3     1  MOL1       -0.4930
     33 C26        17.1020  -19.9360   -6.5680 C.3     1  MOL1        0.0780
@<TRIPOS>BOND
     1    30    28    1
     2    17    18    1
     3    17    15    1
     4    18    19    1
     5    28    27    1
     6    28    31    1
     7    28    29    1
     8    25    26    1
     9    25    20    1
    10    27    26    1
    11    16    15    2
    12    31    26    1
    13    15    14   am
    14    19    20   ar
    15    19    24   ar
    16    20    21   ar
    17    32    24    1
    18    32    33    1
    19    24    23   ar
    20    21    22   ar
    21    14     8    1
    22    23    22   ar
    23     8     1    1
    24     8     9    1
    25     7     1   ar
    26     7     5   ar
    27     1     2   ar
    28     6     5    1
    29     5     4   ar
    30     9    12    1
    31     2     3   ar
    32     4     3   ar
    33    13    12    2
    34    12    11   am
    35    11    10    1
