@<TRIPOS>MOLECULE
L3024_0_out.pdbqt
 33 35 0 0 0
SMALL
GASTEIGER

@<TRIPOS>ATOM
      1 C27         7.1460  -18.8760   -9.5470 C.ar    1  MOL1       -0.0240
      2 C28         7.4560  -18.0320  -10.6290 C.ar    1  MOL1       -0.0570
      3 C29         7.0760  -16.6850  -10.6080 C.ar    1  MOL1       -0.0610
      4 C30         6.3830  -16.1700   -9.5090 C.ar    1  MOL1       -0.0480
      5 C31         6.0720  -16.9970   -8.4250 C.ar    1  MOL1        0.0180
      6 Br32        5.1430  -16.2850   -6.9120 Br      1  MOL1       -0.0510
      7 C33         6.4460  -18.3450   -8.4450 C.ar    1  MOL1       -0.0430
      8  C6         7.4970  -20.3460   -9.6100 C.3     1  MOL1        0.0630
      9  C5         6.9370  -21.0750   -8.3750 C.3     1  MOL1        0.0510
     10  C1         3.7150  -22.3250  -10.1710 C.3     1  MOL1        0.0060
     11  N2         5.0720  -21.8630   -9.9200 N.am    1  MOL1       -0.3590
     12  C3         5.5270  -21.5390   -8.6020 C.2     1  MOL1        0.2220
     13  O4         4.7440  -21.6450   -7.6190 O.2     1  MOL1       -0.2750
     14  N7         8.9510  -20.5190   -9.6950 N.am    1  MOL1       -0.3460
     15  C8         9.8090  -20.3880   -8.5600 C.2     1  MOL1        0.2580
     16  O9         9.3300  -20.1040   -7.4300 O.2     1  MOL1       -0.2710
     17 C10        11.2870  -20.6000   -8.6970 C.3     1  MOL1        0.1670
     18 O11        11.9100  -19.4370   -9.2370 O.3     1  MOL1       -0.4800
     19 C12        12.5910  -18.5200   -8.4320 C.ar    1  MOL1        0.1660
     20 C13        13.9650  -18.6820   -8.1390 C.ar    1  MOL1        0.0120
     21 C21        14.6270  -17.6940   -7.3910 C.ar    1  MOL1       -0.0540
     22 C22        13.9300  -16.5900   -6.9020 C.ar    1  MOL1       -0.0580
     23 C23        12.5640  -16.4570   -7.1500 C.ar    1  MOL1       -0.0160
     24 C24        11.8820  -17.4240   -7.9130 C.ar    1  MOL1        0.1610
     25 C14        14.7410  -19.8930   -8.6070 C.3     1  MOL1        0.0280
     26 N15        15.2790  -20.6390   -7.4510 N.3     1  MOL1       -0.2870
     27 C16        15.7720  -21.9690   -7.8480 C.3     1  MOL1        0.0640
     28 C17        14.7020  -22.6850   -7.0470 C.3     1  MOL1        0.2720
     29 F18        15.1990  -23.4050   -5.9740 F       1  MOL1       -0.2040
     30 F19        13.8010  -23.3910   -7.8270 F       1  MOL1       -0.2040
     31 C20        14.2170  -21.2980   -6.6730 C.3     1  MOL1        0.0640
     32 O25        10.5100  -17.3280   -8.1840 O.3     1  MOL1       -0.4930
     33 C26         9.6400  -16.3620   -7.6040 C.3     1  MOL1        0.0780
@<TRIPOS>BOND
     1     2     3   ar
     2     2     1   ar
     3     3     4   ar
     4    10    11    1
     5    11    12   am
     6    14     8    1
     7    14    15   am
     8     8     1    1
     9     8     9    1
    10     1     7   ar
    11     4     5   ar
    12    18    17    1
    13    18    19    1
    14    17    15    1
    15    25    20    1
    16    25    26    1
    17    12     9    1
    18    12    13    2
    19    15    16    2
    20     7     5   ar
    21    19    20   ar
    22    19    24   ar
    23     5     6    1
    24    32    24    1
    25    32    33    1
    26    20    21   ar
    27    24    23   ar
    28    27    26    1
    29    27    28    1
    30    30    28    1
    31    26    31    1
    32    21    22   ar
    33    23    22   ar
    34    28    31    1
    35    28    29    1
