@<TRIPOS>MOLECULE
L3024_0_out.pdbqt
 33 35 0 0 0
SMALL
GASTEIGER

@<TRIPOS>ATOM
      1 C27         7.0340  -16.5480  -10.2800 C.ar    1  MOL1       -0.0240
      2 C28         7.4470  -17.5190  -11.2100 C.ar    1  MOL1       -0.0570
      3 C29         7.0590  -17.4250  -12.5510 C.ar    1  MOL1       -0.0610
      4 C30         6.2550  -16.3640  -12.9760 C.ar    1  MOL1       -0.0480
      5 C31         5.8400  -15.3890  -12.0620 C.ar    1  MOL1        0.0180
      6 Br32        4.7580  -13.9250  -12.6490 Br      1  MOL1       -0.0510
      7 C33         6.2210  -15.4820  -10.7190 C.ar    1  MOL1       -0.0430
      8  C6         7.3970  -16.6950   -8.8180 C.3     1  MOL1        0.0630
      9  C5         8.9260  -16.6440   -8.6480 C.3     1  MOL1        0.0510
     10  C1        10.3660  -19.9840   -7.2540 C.3     1  MOL1        0.0060
     11  N2         9.7990  -18.6460   -7.3370 N.am    1  MOL1       -0.3590
     12  C3         9.5210  -18.0210   -8.5950 C.2     1  MOL1        0.2220
     13  O4         9.7720  -18.6280   -9.6720 O.2     1  MOL1       -0.2750
     14  N7         6.8600  -17.9520   -8.2860 N.am    1  MOL1       -0.3460
     15  C8         5.5640  -18.0440   -7.6910 C.2     1  MOL1        0.2580
     16  O9         4.8340  -17.0220   -7.5980 O.2     1  MOL1       -0.2710
     17 C10         5.0530  -19.3600   -7.1860 C.3     1  MOL1        0.1670
     18 O11         5.8760  -20.4270   -7.6520 O.3     1  MOL1       -0.4800
     19 C12         5.5120  -21.2220   -8.7420 C.ar    1  MOL1        0.1660
     20 C13         4.1740  -21.6390   -8.9290 C.ar    1  MOL1        0.0120
     21 C21         3.8390  -22.3700  -10.0800 C.ar    1  MOL1       -0.0540
     22 C22         4.8210  -22.7240  -11.0050 C.ar    1  MOL1       -0.0580
     23 C23         6.1490  -22.3550  -10.7940 C.ar    1  MOL1       -0.0160
     24 C24         6.5060  -21.6050   -9.6580 C.ar    1  MOL1        0.1610
     25 C14         3.0920  -21.3200   -7.9210 C.3     1  MOL1        0.0280
     26 N15         1.8440  -20.9330   -8.6100 N.3     1  MOL1       -0.2870
     27 C16         0.8650  -20.3540   -7.6730 C.3     1  MOL1        0.0640
     28 C17        -0.1000  -21.5080   -7.8540 C.3     1  MOL1        0.2720
     29 F18        -1.2820  -21.1520   -8.4800 F       1  MOL1       -0.2040
     30 F19        -0.2780  -22.2710   -6.7110 F       1  MOL1       -0.2040
     31 C20         0.9370  -22.0780   -8.8010 C.3     1  MOL1        0.0640
     32 O25         7.8300  -21.2150   -9.4070 O.3     1  MOL1       -0.4930
     33 C26         8.9780  -21.9050   -9.8900 C.3     1  MOL1        0.0780
@<TRIPOS>BOND
     1     4     3   ar
     2     4     5   ar
     3     6     5    1
     4     3     2   ar
     5     5     7   ar
     6     2     1   ar
     7    22    23   ar
     8    22    21   ar
     9    23    24   ar
    10     7     1   ar
    11     1     8    1
    12    21    20   ar
    13    33    32    1
    14    13    12    2
    15    24    32    1
    16    24    19   ar
    17    20    19   ar
    18    20    25    1
    19     8     9    1
    20     8    14    1
    21    31    26    1
    22    31    28    1
    23    19    18    1
    24     9    12    1
    25    26    25    1
    26    26    27    1
    27    12    11   am
    28    29    28    1
    29    14    15   am
    30    28    27    1
    31    28    30    1
    32    15    16    2
    33    15    17    1
    34    18    17    1
    35    11    10    1
