@<TRIPOS>MOLECULE
L3024_0_out.pdbqt
 33 35 0 0 0
SMALL
GASTEIGER

@<TRIPOS>ATOM
      1 C27         8.7560  -18.0590  -10.3740 C.ar    1  MOL1       -0.0240
      2 C28         8.7540  -18.5550  -11.6900 C.ar    1  MOL1       -0.0570
      3 C29         7.8510  -18.0520  -12.6340 C.ar    1  MOL1       -0.0610
      4 C30         6.9440  -17.0520  -12.2730 C.ar    1  MOL1       -0.0480
      5 C31         6.9380  -16.5480  -10.9680 C.ar    1  MOL1        0.0180
      6 Br32        5.7110  -15.1630  -10.4810 Br      1  MOL1       -0.0510
      7 C33         7.8350  -17.0510  -10.0210 C.ar    1  MOL1       -0.0430
      8  C6         9.6860  -18.6580   -9.3410 C.3     1  MOL1        0.0630
      9  C5         8.8780  -19.1410   -8.1220 C.3     1  MOL1        0.0510
     10  C1         5.8360  -21.5430   -8.5070 C.3     1  MOL1        0.0060
     11  N2         6.6550  -20.3810   -8.1920 N.am    1  MOL1       -0.3590
     12  C3         8.0630  -20.3590   -8.4490 C.2     1  MOL1        0.2220
     13  O4         8.6290  -21.3650   -8.9580 O.2     1  MOL1       -0.2750
     14  N7        10.6960  -17.6750   -8.9340 N.am    1  MOL1       -0.3460
     15  C8        12.0300  -18.0450   -8.5810 C.2     1  MOL1        0.2580
     16  O9        12.3800  -19.2550   -8.5990 O.2     1  MOL1       -0.2710
     17 C10        13.0310  -16.9960   -8.1980 C.3     1  MOL1        0.1670
     18 O11        13.7090  -17.3680   -6.9990 O.3     1  MOL1       -0.4800
     19 C12        15.0100  -16.9420   -6.7210 C.ar    1  MOL1        0.1660
     20 C13        16.1310  -17.6850   -7.1560 C.ar    1  MOL1        0.0120
     21 C21        17.4210  -17.1790   -6.9230 C.ar    1  MOL1       -0.0540
     22 C22        17.5980  -15.9820   -6.2300 C.ar    1  MOL1       -0.0580
     23 C23        16.4910  -15.2750   -5.7580 C.ar    1  MOL1       -0.0160
     24 C24        15.1890  -15.7520   -5.9960 C.ar    1  MOL1        0.1610
     25 C14        15.9810  -19.0130   -7.8640 C.3     1  MOL1        0.0280
     26 N15        16.7630  -20.0580   -7.1730 N.3     1  MOL1       -0.2870
     27 C16        16.8920  -21.2720   -7.9960 C.3     1  MOL1        0.0640
     28 C17        16.0640  -22.1020   -7.0350 C.3     1  MOL1        0.2720
     29 F18        16.7840  -23.0970   -6.3980 F       1  MOL1       -0.2040
     30 F19        14.8590  -22.5320   -7.5660 F       1  MOL1       -0.2040
     31 C20        15.9420  -20.8280   -6.2220 C.3     1  MOL1        0.0640
     32 O25        14.0510  -15.0730   -5.5380 O.3     1  MOL1       -0.4930
     33 C26        13.9500  -14.4350   -4.2690 C.3     1  MOL1        0.0780
@<TRIPOS>BOND
     1     3     4   ar
     2     3     2   ar
     3     4     5   ar
     4     2     1   ar
     5     5     6    1
     6     5     7   ar
     7     1     7   ar
     8     1     8    1
     9     8    14    1
    10     8     9    1
    11    13    12    2
    12    14    15   am
    13    16    15    2
    14    15    17    1
    15    10    11    1
    16    12    11   am
    17    12     9    1
    18    17    18    1
    19    27    26    1
    20    27    28    1
    21    25    26    1
    22    25    20    1
    23    30    28    1
    24    26    31    1
    25    20    21   ar
    26    20    19   ar
    27    28    29    1
    28    28    31    1
    29    18    19    1
    30    21    22   ar
    31    19    24   ar
    32    22    23   ar
    33    24    23   ar
    34    24    32    1
    35    32    33    1
