@<TRIPOS>MOLECULE
L3024_0_out.pdbqt
 33 35 0 0 0
SMALL
GASTEIGER

@<TRIPOS>ATOM
      1 C27         6.4060  -19.6470   -8.4880 C.ar    1  MOL1       -0.0240
      2 C28         5.3560  -20.5310   -8.1790 C.ar    1  MOL1       -0.0570
      3 C29         4.2060  -20.0650   -7.5340 C.ar    1  MOL1       -0.0610
      4 C30         4.0920  -18.7150   -7.1910 C.ar    1  MOL1       -0.0480
      5 C31         5.1280  -17.8240   -7.4960 C.ar    1  MOL1        0.0180
      6 Br32        4.9620  -15.9720   -7.0460 Br      1  MOL1       -0.0510
      7 C33         6.2820  -18.2880   -8.1360 C.ar    1  MOL1       -0.0430
      8  C6         7.6770  -20.1730   -9.1210 C.3     1  MOL1        0.0630
      9  C5         7.5160  -21.6640   -9.4660 C.3     1  MOL1        0.0510
     10  C1        10.4210  -24.0930  -10.3800 C.3     1  MOL1        0.0060
     11  N2         9.2280  -23.5260   -9.7680 N.am    1  MOL1       -0.3590
     12  C3         8.7560  -22.2170  -10.1070 C.2     1  MOL1        0.2220
     13  O4         9.3790  -21.5200  -10.9540 O.2     1  MOL1       -0.2750
     14  N7         8.8150  -19.9710   -8.2180 N.am    1  MOL1       -0.3460
     15  C8         9.7620  -18.9160   -8.3980 C.2     1  MOL1        0.2580
     16  O9         9.6480  -18.1180   -9.3660 O.2     1  MOL1       -0.2710
     17 C10        10.8930  -18.7390   -7.4290 C.3     1  MOL1        0.1670
     18 O11        12.0910  -18.3940   -8.1200 O.3     1  MOL1       -0.4800
     19 C12        13.3370  -18.3880   -7.4850 C.ar    1  MOL1        0.1660
     20 C13        14.1090  -19.5680   -7.3800 C.ar    1  MOL1        0.0120
     21 C21        15.3890  -19.4990   -6.8050 C.ar    1  MOL1       -0.0540
     22 C22        15.8750  -18.2930   -6.3000 C.ar    1  MOL1       -0.0580
     23 C23        15.0910  -17.1410   -6.3600 C.ar    1  MOL1       -0.0160
     24 C24        13.8140  -17.1810   -6.9500 C.ar    1  MOL1        0.1610
     25 C14        13.5940  -20.9040   -7.8670 C.3     1  MOL1        0.0280
     26 N15        14.0990  -21.9960   -7.0100 N.3     1  MOL1       -0.2870
     27 C16        14.0740  -23.2900   -7.7110 C.3     1  MOL1        0.0640
     28 C17        13.0210  -23.8570   -6.7810 C.3     1  MOL1        0.2720
     29 F18        13.4790  -24.8950   -5.9880 F       1  MOL1       -0.2040
     30 F19        11.8100  -24.1180   -7.4020 F       1  MOL1       -0.2040
     31 C20        13.0650  -22.5060   -6.0940 C.3     1  MOL1        0.0640
     32 O25        12.9940  -16.0460   -7.0290 O.3     1  MOL1       -0.4930
     33 C26        12.7110  -15.1780   -5.9360 C.3     1  MOL1        0.0780
@<TRIPOS>BOND
     1    13    12    2
     2    10    11    1
     3    12    11   am
     4    12     9    1
     5     9     8    1
     6    16    15    2
     7     8     1    1
     8     8    14    1
     9     1     2   ar
    10     1     7   ar
    11    15    14   am
    12    15    17    1
    13     2     3   ar
    14     7     5   ar
    15    18    19    1
    16    18    17    1
    17    25    20    1
    18    25    26    1
    19    27    26    1
    20    27    28    1
    21     3     4   ar
    22     5     4   ar
    23     5     6    1
    24    19    20   ar
    25    19    24   ar
    26    30    28    1
    27    20    21   ar
    28    32    24    1
    29    32    33    1
    30    26    31    1
    31    24    23   ar
    32    21    22   ar
    33    28    31    1
    34    28    29    1
    35    23    22   ar
