@<TRIPOS>MOLECULE
L3024_0_out.pdbqt
 33 35 0 0 0
SMALL
GASTEIGER

@<TRIPOS>ATOM
      1 C27         7.5410  -18.6460   -8.3940 C.ar    1  MOL1       -0.0240
      2 C28         7.2660  -17.2830   -8.1820 C.ar    1  MOL1       -0.0570
      3 C29         5.9880  -16.8710   -7.7900 C.ar    1  MOL1       -0.0610
      4 C30         4.9730  -17.8140   -7.6060 C.ar    1  MOL1       -0.0480
      5 C31         5.2340  -19.1740   -7.8100 C.ar    1  MOL1        0.0180
      6 Br32        3.8500  -20.4660   -7.5360 Br      1  MOL1       -0.0510
      7 C33         6.5090  -19.5890   -8.2070 C.ar    1  MOL1       -0.0430
      8  C6         8.9060  -19.0760   -8.8880 C.3     1  MOL1        0.0630
      9  C5         9.0260  -20.6100   -8.8350 C.3     1  MOL1        0.0510
     10  C1         7.3410  -22.4970  -11.7970 C.3     1  MOL1        0.0060
     11  N2         7.5840  -21.8990  -10.4920 N.am    1  MOL1       -0.3590
     12  C3         8.8100  -21.2250  -10.1870 C.2     1  MOL1        0.2220
     13  O4         9.7190  -21.1420  -11.0580 O.2     1  MOL1       -0.2750
     14  N7         9.9590  -18.4470   -8.0830 N.am    1  MOL1       -0.3460
     15  C8        11.2720  -18.2030   -8.5900 C.2     1  MOL1        0.2580
     16  O9        11.5700  -18.5370   -9.7670 O.2     1  MOL1       -0.2710
     17 C10        12.3040  -17.5330   -7.7330 C.3     1  MOL1        0.1670
     18 O11        13.3050  -16.9210   -8.5430 O.3     1  MOL1       -0.4800
     19 C12        14.6460  -16.8760   -8.1550 C.ar    1  MOL1        0.1660
     20 C13        15.4870  -18.0040   -8.2950 C.ar    1  MOL1        0.0120
     21 C21        16.8480  -17.8900   -7.9670 C.ar    1  MOL1       -0.0540
     22 C22        17.3570  -16.6930   -7.4630 C.ar    1  MOL1       -0.0580
     23 C23        16.5150  -15.5960   -7.2780 C.ar    1  MOL1       -0.0160
     24 C24        15.1520  -15.6800   -7.6190 C.ar    1  MOL1        0.1610
     25 C14        14.9590  -19.3340   -8.7880 C.3     1  MOL1        0.0280
     26 N15        14.6890  -20.2350   -7.6490 N.3     1  MOL1       -0.2870
     27 C16        15.6490  -21.3500   -7.6010 C.3     1  MOL1        0.0640
     28 C17        14.5790  -22.3820   -7.8960 C.3     1  MOL1        0.2720
     29 F18        14.3330  -23.2450   -6.8420 F       1  MOL1       -0.2040
     30 F19        14.7380  -23.0180   -9.1160 F       1  MOL1       -0.2040
     31 C20        13.6230  -21.2060   -7.9500 C.3     1  MOL1        0.0640
     32 O25        14.2730  -14.6010   -7.4480 O.3     1  MOL1       -0.4930
     33 C26        13.4860  -14.3800   -6.2830 C.3     1  MOL1        0.0780
@<TRIPOS>BOND
     1    10    11    1
     2    13    12    2
     3    11    12   am
     4    12     9    1
     5    16    15    2
     6    30    28    1
     7     8     9    1
     8     8     1    1
     9     8    14    1
    10    25    20    1
    11    25    26    1
    12    15    14   am
    13    15    17    1
    14    18    19    1
    15    18    17    1
    16     1     7   ar
    17     1     2   ar
    18    20    19   ar
    19    20    21   ar
    20     7     5   ar
    21     2     3   ar
    22    19    24   ar
    23    21    22   ar
    24    31    28    1
    25    31    26    1
    26    28    27    1
    27    28    29    1
    28     5     4   ar
    29     5     6    1
    30     3     4   ar
    31    26    27    1
    32    24    32    1
    33    24    23   ar
    34    22    23   ar
    35    32    33    1
