@<TRIPOS>MOLECULE
L3024_0_out.pdbqt
 33 35 0 0 0
SMALL
GASTEIGER

@<TRIPOS>ATOM
      1 C27         8.3580  -17.8000   -9.0850 C.ar    1  MOL1       -0.0240
      2 C28         8.2340  -17.4270  -10.4360 C.ar    1  MOL1       -0.0570
      3 C29         7.1300  -16.6840  -10.8660 C.ar    1  MOL1       -0.0610
      4 C30         6.1400  -16.3070   -9.9550 C.ar    1  MOL1       -0.0480
      5 C31         6.2530  -16.6690   -8.6080 C.ar    1  MOL1        0.0180
      6 Br32        4.9080  -16.1330   -7.3560 Br      1  MOL1       -0.0510
      7 C33         7.3530  -17.4160   -8.1750 C.ar    1  MOL1       -0.0430
      8  C6         9.5180  -18.6640   -8.6420 C.3     1  MOL1        0.0630
      9  C5         8.9940  -19.9540   -7.9840 C.3     1  MOL1        0.0510
     10  C1         9.3520  -22.2780  -11.0890 C.3     1  MOL1        0.0060
     11  N2         9.6060  -21.2530  -10.0880 N.am    1  MOL1       -0.3590
     12  C3         8.6990  -21.0120   -9.0070 C.2     1  MOL1        0.2220
     13  O4         7.6420  -21.6940   -8.9050 O.2     1  MOL1       -0.2750
     14  N7        10.3780  -17.9240   -7.7120 N.am    1  MOL1       -0.3460
     15  C8        11.6540  -17.4030   -8.0930 C.2     1  MOL1        0.2580
     16  O9        12.0880  -17.5800   -9.2620 O.2     1  MOL1       -0.2710
     17 C10        12.4810  -16.6310   -7.1100 C.3     1  MOL1        0.1670
     18 O11        13.6690  -17.3480   -6.7850 O.3     1  MOL1       -0.4800
     19 C12        14.9280  -16.7420   -6.7960 C.ar    1  MOL1        0.1660
     20 C13        15.3800  -15.9750   -5.6970 C.ar    1  MOL1        0.0120
     21 C21        16.6820  -15.4500   -5.7170 C.ar    1  MOL1       -0.0540
     22 C22        17.5060  -15.6400   -6.8270 C.ar    1  MOL1       -0.0580
     23 C23        17.0400  -16.3550   -7.9310 C.ar    1  MOL1       -0.0160
     24 C24        15.7460  -16.9070   -7.9250 C.ar    1  MOL1        0.1610
     25 C14        14.4970  -15.7020   -4.4990 C.3     1  MOL1        0.0280
     26 N15        14.9890  -14.5270   -3.7520 N.3     1  MOL1       -0.2870
     27 C16        15.6680  -14.9230   -2.5070 C.3     1  MOL1        0.0640
     28 C17        14.6070  -14.2790   -1.6370 C.3     1  MOL1        0.2720
     29 F18        15.0640  -13.1890   -0.9170 F       1  MOL1       -0.2040
     30 F19        13.8790  -15.1840   -0.8830 F       1  MOL1       -0.2040
     31 C20        13.9310  -13.9010   -2.9410 C.3     1  MOL1        0.0640
     32 O25        15.2400  -17.6310   -9.0150 O.3     1  MOL1       -0.4930
     33 C26        15.6030  -18.9710   -9.3300 C.3     1  MOL1        0.0780
@<TRIPOS>BOND
     1    10    11    1
     2     3     2   ar
     3     3     4   ar
     4     2     1   ar
     5    11    12   am
     6     4     5   ar
     7    33    32    1
     8    16    15    2
     9     1     8    1
    10     1     7   ar
    11    32    24    1
    12    12    13    2
    13    12     9    1
    14     8     9    1
    15     8    14    1
    16     5     7   ar
    17     5     6    1
    18    15    14   am
    19    15    17    1
    20    23    24   ar
    21    23    22   ar
    22    24    19   ar
    23    17    18    1
    24    22    21   ar
    25    19    18    1
    26    19    20   ar
    27    21    20   ar
    28    20    25    1
    29    25    26    1
    30    26    31    1
    31    26    27    1
    32    31    28    1
    33    27    28    1
    34    28    29    1
    35    28    30    1
