@<TRIPOS>MOLECULE
L3024_0_out.pdbqt
 33 35 0 0 0
SMALL
GASTEIGER

@<TRIPOS>ATOM
      1 C27        15.4100  -17.6900   -2.5530 C.ar    1  MOL1       -0.0240
      2 C28        15.7020  -19.0190   -2.9110 C.ar    1  MOL1       -0.0570
      3 C29        15.4410  -20.0650   -2.0190 C.ar    1  MOL1       -0.0610
      4 C30        14.8880  -19.7960   -0.7640 C.ar    1  MOL1       -0.0480
      5 C31        14.5900  -18.4790   -0.3970 C.ar    1  MOL1        0.0180
      6 Br32       13.8130  -18.1140    1.3130 Br      1  MOL1       -0.0510
      7 C33        14.8540  -17.4300   -1.2830 C.ar    1  MOL1       -0.0430
      8  C6        15.7620  -16.5580   -3.4940 C.3     1  MOL1        0.0630
      9  C5        16.2430  -15.3360   -2.6910 C.3     1  MOL1        0.0510
     10  C1        19.8230  -15.1720   -4.2180 C.3     1  MOL1        0.0060
     11  N2        18.3870  -15.3570   -4.0660 N.am    1  MOL1       -0.3590
     12  C3        17.7270  -15.1470   -2.8130 C.2     1  MOL1        0.2220
     13  O4        18.3920  -14.7970   -1.7990 O.2     1  MOL1       -0.2750
     14  N7        14.6040  -16.2080   -4.3230 N.am    1  MOL1       -0.3460
     15  C8        14.7280  -15.8220   -5.6930 C.2     1  MOL1        0.2580
     16  O9        15.8630  -15.7600   -6.2360 O.2     1  MOL1       -0.2710
     17 C10        13.5080  -15.4990   -6.5040 C.3     1  MOL1        0.1670
     18 O11        13.5030  -16.2470   -7.7170 O.3     1  MOL1       -0.4800
     19 C12        13.0780  -17.5780   -7.7660 C.ar    1  MOL1        0.1660
     20 C13        13.9860  -18.6260   -8.0420 C.ar    1  MOL1        0.0120
     21 C21        13.5310  -19.9540   -8.0030 C.ar    1  MOL1       -0.0540
     22 C22        12.1900  -20.2370   -7.7430 C.ar    1  MOL1       -0.0580
     23 C23        11.2860  -19.1980   -7.5200 C.ar    1  MOL1       -0.0160
     24 C24        11.7220  -17.8600   -7.5340 C.ar    1  MOL1        0.1610
     25 C14        15.4350  -18.3560   -8.3810 C.3     1  MOL1        0.0280
     26 N15        16.3030  -19.4060   -7.8110 N.3     1  MOL1       -0.2870
     27 C16        16.5970  -19.1540   -6.3900 C.3     1  MOL1        0.0640
     28 C17        18.0710  -18.9240   -6.6600 C.3     1  MOL1        0.2720
     29 F18        18.8930  -19.8930   -6.1110 F       1  MOL1       -0.2040
     30 F19        18.4880  -17.6270   -6.4110 F       1  MOL1       -0.2040
     31 C20        17.7260  -19.1780   -8.1150 C.3     1  MOL1        0.0640
     32 O25        10.8450  -16.7880   -7.3160 O.3     1  MOL1       -0.4930
     33 C26         9.5710  -16.6490   -7.9380 C.3     1  MOL1        0.0780
@<TRIPOS>BOND
     1    25    20    1
     2    25    26    1
     3    31    26    1
     4    31    28    1
     5    20    21   ar
     6    20    19   ar
     7    21    22   ar
     8    33    32    1
     9    26    27    1
    10    19    18    1
    11    19    24   ar
    12    22    23   ar
    13    18    17    1
    14    24    23   ar
    15    24    32    1
    16    28    30    1
    17    28    27    1
    18    28    29    1
    19    17    15    1
    20    16    15    2
    21    15    14   am
    22    14     8    1
    23    10    11    1
    24    11    12   am
    25     8     9    1
    26     8     1    1
    27     2     1   ar
    28     2     3   ar
    29    12     9    1
    30    12    13    2
    31     1     7   ar
    32     3     4   ar
    33     7     5   ar
    34     4     5   ar
    35     5     6    1
