@<TRIPOS>MOLECULE
L3024_0_out.pdbqt
 33 35 0 0 0
SMALL
GASTEIGER

@<TRIPOS>ATOM
      1 C27        10.2890  -17.7240   -8.6210 C.ar    1  MOL1       -0.0240
      2 C28         9.6720  -16.7080   -7.8680 C.ar    1  MOL1       -0.0570
      3 C29         8.4230  -16.2050   -8.2480 C.ar    1  MOL1       -0.0610
      4 C30         7.7790  -16.7110   -9.3810 C.ar    1  MOL1       -0.0480
      5 C31         8.3800  -17.7240  -10.1360 C.ar    1  MOL1        0.0180
      6 Br32        7.4860  -18.4310  -11.6730 Br      1  MOL1       -0.0510
      7 C33         9.6310  -18.2260   -9.7620 C.ar    1  MOL1       -0.0430
      8  C6        11.6720  -18.2110   -8.2450 C.3     1  MOL1        0.0630
      9  C5        11.6210  -19.7030   -7.8680 C.3     1  MOL1        0.0510
     10  C1        14.5210  -21.2170   -5.7530 C.3     1  MOL1        0.0060
     11  N2        13.2210  -20.7010   -6.1550 N.am    1  MOL1       -0.3590
     12  C3        12.9770  -20.2190   -7.4810 C.2     1  MOL1        0.2220
     13  O4        13.9030  -20.2290   -8.3370 O.2     1  MOL1       -0.2750
     14  N7        12.2070  -17.4160   -7.1350 N.am    1  MOL1       -0.3460
     15  C8        13.2770  -16.4840   -7.3020 C.2     1  MOL1        0.2580
     16  O9        13.8100  -16.3240   -8.4330 O.2     1  MOL1       -0.2710
     17 C10        13.7690  -15.6770   -6.1380 C.3     1  MOL1        0.1670
     18 O11        15.1890  -15.7520   -6.0430 O.3     1  MOL1       -0.4800
     19 C12        15.8280  -16.6720   -5.2070 C.ar    1  MOL1        0.1660
     20 C13        16.4830  -17.8080   -5.7350 C.ar    1  MOL1        0.0120
     21 C21        17.1790  -18.6630   -4.8650 C.ar    1  MOL1       -0.0540
     22 C22        17.1860  -18.4230   -3.4910 C.ar    1  MOL1       -0.0580
     23 C23        16.4970  -17.3290   -2.9670 C.ar    1  MOL1       -0.0160
     24 C24        15.8090  -16.4470   -3.8200 C.ar    1  MOL1        0.1610
     25 C14        16.4520  -18.1300   -7.2120 C.3     1  MOL1        0.0280
     26 N15        17.6250  -17.5430   -7.8920 N.3     1  MOL1       -0.2870
     27 C16        17.2220  -16.6090   -8.9570 C.3     1  MOL1        0.0640
     28 C17        17.7870  -17.4960  -10.0490 C.3     1  MOL1        0.2720
     29 F18        18.8730  -16.9450  -10.7070 F       1  MOL1       -0.2040
     30 F19        16.8240  -18.0180  -10.8970 F       1  MOL1       -0.2040
     31 C20        18.1740  -18.4370   -8.9260 C.3     1  MOL1        0.0640
     32 O25        15.1040  -15.3370   -3.3340 O.3     1  MOL1       -0.4930
     33 C26        15.3330  -14.7290   -2.0670 C.3     1  MOL1        0.0780
@<TRIPOS>BOND
     1     6     5    1
     2    30    28    1
     3    29    28    1
     4     5     7   ar
     5     5     4   ar
     6    28    27    1
     7    28    31    1
     8     7     1   ar
     9     4     3   ar
    10    27    26    1
    11    31    26    1
    12     1     8    1
    13     1     2   ar
    14    16    15    2
    15    13    12    2
    16     3     2   ar
    17     8     9    1
    18     8    14    1
    19    26    25    1
    20     9    12    1
    21    12    11   am
    22    15    14   am
    23    15    17    1
    24    25    20    1
    25    11    10    1
    26    17    18    1
    27    18    19    1
    28    20    19   ar
    29    20    21   ar
    30    19    24   ar
    31    21    22   ar
    32    24    32    1
    33    24    23   ar
    34    22    23   ar
    35    32    33    1
