@<TRIPOS>MOLECULE
L3024_0_out.pdbqt
 33 35 0 0 0
SMALL
GASTEIGER

@<TRIPOS>ATOM
      1 C27         8.5420  -20.1750   -9.3530 C.ar    1  MOL1       -0.0240
      2 C28         9.4350  -21.2550   -9.4810 C.ar    1  MOL1       -0.0570
      3 C29         8.9600  -22.5330   -9.7940 C.ar    1  MOL1       -0.0610
      4 C30         7.5920  -22.7460   -9.9820 C.ar    1  MOL1       -0.0480
      5 C31         6.6930  -21.6810   -9.8610 C.ar    1  MOL1        0.0180
      6 Br32        4.8220  -21.9690  -10.1410 Br      1  MOL1       -0.0510
      7 C33         7.1630  -20.4020   -9.5430 C.ar    1  MOL1       -0.0430
      8  C6         9.0550  -18.8120   -8.9440 C.3     1  MOL1        0.0630
      9  C5         8.1590  -17.7100   -9.5390 C.3     1  MOL1        0.0510
     10  C1         5.4590  -16.3830   -7.0650 C.3     1  MOL1        0.0060
     11  N2         6.1290  -17.1440   -8.1100 N.am    1  MOL1       -0.3590
     12  C3         7.4940  -16.9010   -8.4640 C.2     1  MOL1        0.2220
     13  O4         8.1510  -16.0020   -7.8710 O.2     1  MOL1       -0.2750
     14  N7        10.4450  -18.6400   -9.3800 N.am    1  MOL1       -0.3460
     15  C8        11.4180  -17.9510   -8.5930 C.2     1  MOL1        0.2580
     16  O9        11.0990  -17.4530   -7.4810 O.2     1  MOL1       -0.2710
     17 C10        12.8330  -17.8260   -9.0750 C.3     1  MOL1        0.1670
     18 O11        13.7450  -17.9940   -7.9920 O.3     1  MOL1       -0.4800
     19 C12        14.8670  -17.1750   -7.8350 C.ar    1  MOL1        0.1660
     20 C13        16.0620  -17.4270   -8.5480 C.ar    1  MOL1        0.0120
     21 C21        17.1380  -16.5330   -8.4190 C.ar    1  MOL1       -0.0540
     22 C22        17.0480  -15.4360   -7.5620 C.ar    1  MOL1       -0.0580
     23 C23        15.8870  -15.2180   -6.8210 C.ar    1  MOL1       -0.0160
     24 C24        14.7880  -16.0880   -6.9490 C.ar    1  MOL1        0.1610
     25 C14        16.2140  -18.6350   -9.4450 C.3     1  MOL1        0.0280
     26 N15        16.4800  -19.8450   -8.6410 N.3     1  MOL1       -0.2870
     27 C16        17.2660  -19.5320   -7.4350 C.3     1  MOL1        0.0640
     28 C17        18.4640  -20.3230   -7.9220 C.3     1  MOL1        0.2720
     29 F18        18.7330  -21.4480   -7.1610 F       1  MOL1       -0.2040
     30 F19        19.5780  -19.5430   -8.1840 F       1  MOL1       -0.2040
     31 C20        17.6280  -20.6120   -9.1530 C.3     1  MOL1        0.0640
     32 O25        13.6030  -15.9050   -6.2220 O.3     1  MOL1       -0.4930
     33 C26        13.2030  -14.6730   -5.6310 C.3     1  MOL1        0.0780
@<TRIPOS>BOND
     1     6     5    1
     2     4     5   ar
     3     4     3   ar
     4     5     7   ar
     5     3     2   ar
     6     7     1   ar
     7     9     8    1
     8     9    12    1
     9     2     1   ar
    10    25    26    1
    11    25    20    1
    12    14     8    1
    13    14    15   am
    14     1     8    1
    15    31    26    1
    16    31    28    1
    17    17    15    1
    18    17    18    1
    19    26    27    1
    20    15    16    2
    21    20    21   ar
    22    20    19   ar
    23    12    11   am
    24    12    13    2
    25    21    22   ar
    26    30    28    1
    27    11    10    1
    28    18    19    1
    29    28    27    1
    30    28    29    1
    31    19    24   ar
    32    22    23   ar
    33    24    23   ar
    34    24    32    1
    35    32    33    1
