@<TRIPOS>MOLECULE
L3024_0_out.pdbqt
 33 35 0 0 0
SMALL
GASTEIGER

@<TRIPOS>ATOM
      1 C27         9.8560  -18.5540   -8.1430 C.ar    1  MOL1       -0.0240
      2 C28         9.7010  -17.1690   -8.3350 C.ar    1  MOL1       -0.0570
      3 C29         8.4420  -16.6310   -8.6240 C.ar    1  MOL1       -0.0610
      4 C30         7.3280  -17.4680   -8.7240 C.ar    1  MOL1       -0.0480
      5 C31         7.4670  -18.8470   -8.5310 C.ar    1  MOL1        0.0180
      6 Br32        5.9370  -19.9900   -8.6460 Br      1  MOL1       -0.0510
      7 C33         8.7250  -19.3890   -8.2470 C.ar    1  MOL1       -0.0430
      8  C6        11.2320  -19.1360   -7.9030 C.3     1  MOL1        0.0630
      9  C5        11.1450  -20.2980   -6.8970 C.3     1  MOL1        0.0510
     10  C1        12.8890  -23.7390   -7.4360 C.3     1  MOL1        0.0060
     11  N2        12.4810  -22.4660   -6.8600 N.am    1  MOL1       -0.3590
     12  C3        11.5540  -21.6000   -7.5220 C.2     1  MOL1        0.2220
     13  O4        11.0690  -21.9280   -8.6400 O.2     1  MOL1       -0.2750
     14  N7        12.1450  -18.0970   -7.4140 N.am    1  MOL1       -0.3460
     15  C8        13.5660  -18.2270   -7.4860 C.2     1  MOL1        0.2580
     16  O9        14.0860  -19.2660   -7.9730 O.2     1  MOL1       -0.2710
     17 C10        14.4540  -17.1230   -6.9960 C.3     1  MOL1        0.1670
     18 O11        15.0350  -17.4700   -5.7410 O.3     1  MOL1       -0.4800
     19 C12        16.3600  -17.1560   -5.4250 C.ar    1  MOL1        0.1660
     20 C13        17.4070  -18.0750   -5.6660 C.ar    1  MOL1        0.0120
     21 C21        18.7320  -17.6880   -5.4070 C.ar    1  MOL1       -0.0540
     22 C22        19.0100  -16.4300   -4.8730 C.ar    1  MOL1       -0.0580
     23 C23        17.9720  -15.5430   -4.5890 C.ar    1  MOL1       -0.0160
     24 C24        16.6380  -15.9010   -4.8590 C.ar    1  MOL1        0.1610
     25 C14        17.1390  -19.4670   -6.1940 C.3     1  MOL1        0.0280
     26 N15        18.0630  -19.7850   -7.3020 N.3     1  MOL1       -0.2870
     27 C16        17.4910  -19.4160   -8.6080 C.3     1  MOL1        0.0640
     28 C17        17.4070  -20.8600   -9.0610 C.3     1  MOL1        0.2720
     29 F18        18.2540  -21.1630  -10.1130 F       1  MOL1       -0.2040
     30 F19        16.1100  -21.3150   -9.2370 F       1  MOL1       -0.2040
     31 C20        17.9850  -21.2010   -7.7020 C.3     1  MOL1        0.0640
     32 O25        15.5650  -15.0390   -4.5870 O.3     1  MOL1       -0.4930
     33 C26        15.2380  -14.5440   -3.2930 C.3     1  MOL1        0.0780
@<TRIPOS>BOND
     1    29    28    1
     2    30    28    1
     3    28    27    1
     4    28    31    1
     5     4     3   ar
     6     4     5   ar
     7     6     5    1
     8    13    12    2
     9     3     2   ar
    10    27    26    1
    11     5     7   ar
    12     2     1   ar
    13     7     1   ar
    14     1     8    1
    15    16    15    2
    16     8    14    1
    17     8     9    1
    18    31    26    1
    19    12     9    1
    20    12    11   am
    21    15    14   am
    22    15    17    1
    23    10    11    1
    24    26    25    1
    25    17    18    1
    26    25    20    1
    27    18    19    1
    28    20    19   ar
    29    20    21   ar
    30    19    24   ar
    31    21    22   ar
    32    22    23   ar
    33    24    23   ar
    34    24    32    1
    35    32    33    1
