@<TRIPOS>MOLECULE
L3024_0_out.pdbqt
 33 35 0 0 0
SMALL
GASTEIGER

@<TRIPOS>ATOM
      1 C27         7.0420  -17.5820  -10.0680 C.ar    1  MOL1       -0.0240
      2 C28         7.5060  -18.2440  -11.2190 C.ar    1  MOL1       -0.0570
      3 C29         7.3090  -17.6840  -12.4860 C.ar    1  MOL1       -0.0610
      4 C30         6.6470  -16.4600  -12.6160 C.ar    1  MOL1       -0.0480
      5 C31         6.1830  -15.7900  -11.4790 C.ar    1  MOL1        0.0180
      6 Br32        5.2960  -14.1040  -11.6570 Br      1  MOL1       -0.0510
      7 C33         6.3740  -16.3490  -10.2110 C.ar    1  MOL1       -0.0430
      8  C6         7.1950  -18.2290   -8.7080 C.3     1  MOL1        0.0630
      9  C5         8.2490  -19.3480   -8.7730 C.3     1  MOL1        0.0510
     10  C1        11.4060  -17.2800   -7.8080 C.3     1  MOL1        0.0060
     11  N2        10.1710  -17.7080   -8.4490 N.am    1  MOL1       -0.3590
     12  C3         9.5290  -18.9400   -8.1020 C.2     1  MOL1        0.2220
     13  O4        10.0340  -19.6910   -7.2240 O.2     1  MOL1       -0.2750
     14  N7         5.9070  -18.7580   -8.2490 N.am    1  MOL1       -0.3460
     15  C8         5.7780  -20.0420   -7.6350 C.2     1  MOL1        0.2580
     16  O9         6.7900  -20.7750   -7.4770 O.2     1  MOL1       -0.2710
     17 C10         4.4400  -20.5250   -7.1600 C.3     1  MOL1        0.1670
     18 O11         3.4520  -20.3290   -8.1690 O.3     1  MOL1       -0.4800
     19 C12         2.9310  -21.3920   -8.9130 C.ar    1  MOL1        0.1660
     20 C13         1.5830  -21.7940   -8.7670 C.ar    1  MOL1        0.0120
     21 C21         1.0800  -22.8150   -9.5910 C.ar    1  MOL1       -0.0540
     22 C22         1.9110  -23.4580  -10.5090 C.ar    1  MOL1       -0.0580
     23 C23         3.2540  -23.0940  -10.6150 C.ar    1  MOL1       -0.0160
     24 C24         3.7750  -22.0610   -9.8140 C.ar    1  MOL1        0.1610
     25 C14         0.6670  -21.1560   -7.7470 C.3     1  MOL1        0.0280
     26 N15        -0.4220  -20.4200   -8.4200 N.3     1  MOL1       -0.2870
     27 C16        -1.2080  -19.6210   -7.4650 C.3     1  MOL1        0.0640
     28 C17        -2.4540  -20.4580   -7.6760 C.3     1  MOL1        0.2720
     29 F18        -3.4870  -19.7710   -8.2880 F       1  MOL1       -0.2040
     30 F19        -2.8420  -21.1740   -6.5550 F       1  MOL1       -0.2040
     31 C20        -1.6090  -21.2650   -8.6430 C.3     1  MOL1        0.0640
     32 O25         5.1180  -21.6650   -9.8890 O.3     1  MOL1       -0.4930
     33 C26         6.0540  -22.1660  -10.8380 C.3     1  MOL1        0.0780
@<TRIPOS>BOND
     1     4     3   ar
     2     4     5   ar
     3     3     2   ar
     4     6     5    1
     5     5     7   ar
     6     2     1   ar
     7    33    32    1
     8    23    22   ar
     9    23    24   ar
    10    22    21   ar
    11     7     1   ar
    12     1     8    1
    13    32    24    1
    14    24    19   ar
    15    21    20   ar
    16    19    20   ar
    17    19    18    1
    18     9     8    1
    19     9    12    1
    20    20    25    1
    21     8    14    1
    22    31    26    1
    23    31    28    1
    24    11    12   am
    25    11    10    1
    26    26    25    1
    27    26    27    1
    28    29    28    1
    29    14    15   am
    30    18    17    1
    31    12    13    2
    32    28    27    1
    33    28    30    1
    34    15    16    2
    35    15    17    1
