@<TRIPOS>MOLECULE
L3024_0_out.pdbqt
 33 35 0 0 0
SMALL
GASTEIGER

@<TRIPOS>ATOM
      1 C27        17.2760  -18.6320   -5.4640 C.ar    1  MOL1       -0.0240
      2 C28        18.2970  -17.6670   -5.5450 C.ar    1  MOL1       -0.0570
      3 C29        18.4410  -16.7050   -4.5390 C.ar    1  MOL1       -0.0610
      4 C30        17.5700  -16.6960   -3.4470 C.ar    1  MOL1       -0.0480
      5 C31        16.5530  -17.6520   -3.3530 C.ar    1  MOL1        0.0180
      6 Br32       15.3740  -17.6520   -1.8460 Br      1  MOL1       -0.0510
      7 C33        16.4020  -18.6120   -4.3580 C.ar    1  MOL1       -0.0430
      8  C6        17.0810  -19.6240   -6.5910 C.3     1  MOL1        0.0630
      9  C5        18.1620  -19.4180   -7.6680 C.3     1  MOL1        0.0510
     10  C1        20.5790  -21.9840   -9.3240 C.3     1  MOL1        0.0060
     11  N2        19.9450  -20.7380   -8.9170 N.am    1  MOL1       -0.3590
     12  C3        18.7860  -20.7200   -8.0770 C.2     1  MOL1        0.2220
     13  O4        18.2820  -21.8030   -7.6720 O.2     1  MOL1       -0.2750
     14  N7        15.7410  -19.4790   -7.1690 N.am    1  MOL1       -0.3460
     15  C8        14.8070  -20.5590   -7.2260 C.2     1  MOL1        0.2580
     16  O9        15.1210  -21.6940   -6.7780 O.2     1  MOL1       -0.2710
     17 C10        13.4400  -20.3490   -7.8040 C.3     1  MOL1        0.1670
     18 O11        13.3270  -19.0400   -8.3570 O.3     1  MOL1       -0.4800
     19 C12        12.2440  -18.2050   -8.0700 C.ar    1  MOL1        0.1660
     20 C13        12.3740  -17.1230   -7.1690 C.ar    1  MOL1        0.0120
     21 C21        11.2820  -16.2620   -6.9710 C.ar    1  MOL1       -0.0540
     22 C22        10.0680  -16.4980   -7.6160 C.ar    1  MOL1       -0.0580
     23 C23         9.9270  -17.5950   -8.4660 C.ar    1  MOL1       -0.0160
     24 C24        11.0130  -18.4600   -8.6960 C.ar    1  MOL1        0.1610
     25 C14        13.6570  -16.8670   -6.4110 C.3     1  MOL1        0.0280
     26 N15        14.1950  -15.5320   -6.7430 N.3     1  MOL1       -0.2870
     27 C16        14.6360  -15.4590   -8.1460 C.3     1  MOL1        0.0640
     28 C17        16.0910  -15.2860   -7.7560 C.3     1  MOL1        0.2720
     29 F18        16.6100  -14.0450   -8.0810 F       1  MOL1       -0.2040
     30 F19        16.8990  -16.3470   -8.1300 F       1  MOL1       -0.2040
     31 C20        15.5990  -15.3790   -6.3240 C.3     1  MOL1        0.0640
     32 O25        10.9120  -19.5740   -9.5410 O.3     1  MOL1       -0.4930
     33 C26        10.0750  -19.6410  -10.6900 C.3     1  MOL1        0.0780
@<TRIPOS>BOND
     1    33    32    1
     2    32    24    1
     3    10    11    1
     4    11    12   am
     5    24    23   ar
     6    24    19   ar
     7    23    22   ar
     8    18    19    1
     9    18    17    1
    10    27    28    1
    11    27    26    1
    12    30    28    1
    13    29    28    1
    14    12    13    2
    15    12     9    1
    16    19    20   ar
    17    17    15    1
    18    28    31    1
    19     9     8    1
    20    22    21   ar
    21    15    14   am
    22    15    16    2
    23    14     8    1
    24    20    21   ar
    25    20    25    1
    26    26    25    1
    27    26    31    1
    28     8     1    1
    29     2     1   ar
    30     2     3   ar
    31     1     7   ar
    32     3     4   ar
    33     7     5   ar
    34     4     5   ar
    35     5     6    1
