@<TRIPOS>MOLECULE
L3024_0_out.pdbqt
 33 35 0 0 0
SMALL
GASTEIGER

@<TRIPOS>ATOM
      1 C27         8.8430  -20.4780   -9.1280 C.ar    1  MOL1       -0.0240
      2 C28         7.4900  -20.7900   -8.9000 C.ar    1  MOL1       -0.0570
      3 C29         7.0060  -22.0760   -9.1660 C.ar    1  MOL1       -0.0610
      4 C30         7.8660  -23.0600   -9.6620 C.ar    1  MOL1       -0.0480
      5 C31         9.2140  -22.7640   -9.8900 C.ar    1  MOL1        0.0180
      6 Br32       10.3950  -24.1190  -10.5470 Br      1  MOL1       -0.0510
      7 C33         9.7000  -21.4790   -9.6300 C.ar    1  MOL1       -0.0430
      8  C6         9.3420  -19.0670   -8.9070 C.3     1  MOL1        0.0630
      9  C5         8.8460  -18.1490  -10.0380 C.3     1  MOL1        0.0510
     10  C1         6.1540  -16.4620   -7.7850 C.3     1  MOL1        0.0060
     11  N2         7.1520  -17.3910   -8.2940 N.am    1  MOL1       -0.3590
     12  C3         7.8130  -17.1770   -9.5450 C.2     1  MOL1        0.2220
     13  O4         7.5330  -16.1640  -10.2430 O.2     1  MOL1       -0.2750
     14  N7        10.8070  -19.0510   -8.8350 N.am    1  MOL1       -0.3460
     15  C8        11.5240  -18.1950   -7.9440 C.2     1  MOL1        0.2580
     16  O9        10.9030  -17.4040   -7.1850 O.2     1  MOL1       -0.2710
     17 C10        13.0220  -18.2380   -7.8910 C.3     1  MOL1        0.1670
     18 O11        13.4610  -18.9700   -6.7490 O.3     1  MOL1       -0.4800
     19 C12        14.6090  -19.7660   -6.7750 C.ar    1  MOL1        0.1660
     20 C13        15.8460  -19.2810   -6.2910 C.ar    1  MOL1        0.0120
     21 C21        16.9560  -20.1420   -6.2630 C.ar    1  MOL1       -0.0540
     22 C22        16.8540  -21.4440   -6.7510 C.ar    1  MOL1       -0.0580
     23 C23        15.6460  -21.9050   -7.2750 C.ar    1  MOL1       -0.0160
     24 C24        14.5150  -21.0670   -7.2950 C.ar    1  MOL1        0.1610
     25 C14        16.0080  -17.8580   -5.8030 C.3     1  MOL1        0.0280
     26 N15        15.8300  -16.9070   -6.9190 N.3     1  MOL1       -0.2870
     27 C16        17.1240  -16.4820   -7.4800 C.3     1  MOL1        0.0640
     28 C17        16.9350  -15.0490   -7.0210 C.3     1  MOL1        0.2720
     29 F18        16.7880  -14.1470   -8.0600 F       1  MOL1       -0.2040
     30 F19        17.8440  -14.6490   -6.0550 F       1  MOL1       -0.2040
     31 C20        15.6160  -15.5280   -6.4460 C.3     1  MOL1        0.0640
     32 O25        13.2830  -21.4910   -7.8140 O.3     1  MOL1       -0.4930
     33 C26        12.2390  -22.0710   -7.0380 C.3     1  MOL1        0.0780
@<TRIPOS>BOND
     1     6     5    1
     2    13    12    2
     3     9    12    1
     4     9     8    1
     5     5     4   ar
     6     5     7   ar
     7     4     3   ar
     8     7     1   ar
     9    12    11   am
    10     3     2   ar
    11     1     8    1
    12     1     2   ar
    13     8    14    1
    14    14    15   am
    15    11    10    1
    16    29    28    1
    17    15    17    1
    18    15    16    2
    19    17    18    1
    20    32    24    1
    21    32    33    1
    22    27    28    1
    23    27    26    1
    24    24    23   ar
    25    24    19   ar
    26    23    22   ar
    27    28    31    1
    28    28    30    1
    29    26    31    1
    30    26    25    1
    31    19    18    1
    32    19    20   ar
    33    22    21   ar
    34    20    21   ar
    35    20    25    1
