@<TRIPOS>MOLECULE
L3024_0_out.pdbqt
 33 35 0 0 0
SMALL
GASTEIGER

@<TRIPOS>ATOM
      1 C27         4.3110  -14.6740  -10.0390 C.ar    1  MOL1       -0.0240
      2 C28         3.0590  -14.6890   -9.3980 C.ar    1  MOL1       -0.0570
      3 C29         2.0280  -13.8540   -9.8420 C.ar    1  MOL1       -0.0610
      4 C30         2.2350  -12.9980  -10.9270 C.ar    1  MOL1       -0.0480
      5 C31         3.4750  -12.9770  -11.5760 C.ar    1  MOL1        0.0180
      6 Br32        3.7520  -11.8210  -13.0750 Br      1  MOL1       -0.0510
      7 C33         4.5100  -13.8060  -11.1320 C.ar    1  MOL1       -0.0430
      8  C6         5.4440  -15.5270   -9.5080 C.3     1  MOL1        0.0630
      9  C5         6.4810  -15.7760  -10.6180 C.3     1  MOL1        0.0510
     10  C1         9.4280  -16.8530   -8.3090 C.3     1  MOL1        0.0060
     11  N2         8.2730  -16.1480   -8.8460 N.am    1  MOL1       -0.3590
     12  C3         7.6780  -16.5160  -10.0950 C.2     1  MOL1        0.2220
     13  O4         8.1570  -17.4710  -10.7660 O.2     1  MOL1       -0.2750
     14  N7         4.9240  -16.7980   -8.9920 N.am    1  MOL1       -0.3460
     15  C8         5.0020  -17.1560   -7.6100 C.2     1  MOL1        0.2580
     16  O9         5.5410  -16.3760   -6.7810 O.2     1  MOL1       -0.2710
     17 C10         4.4310  -18.4570   -7.1310 C.3     1  MOL1        0.1670
     18 O11         5.3770  -19.5100   -7.3040 O.3     1  MOL1       -0.4800
     19 C12         5.3010  -20.4060   -8.3730 C.ar    1  MOL1        0.1660
     20 C13         4.1240  -21.1470   -8.6250 C.ar    1  MOL1        0.0120
     21 C21         4.0650  -21.9770   -9.7570 C.ar    1  MOL1       -0.0540
     22 C22         5.1710  -22.1070  -10.5970 C.ar    1  MOL1       -0.0580
     23 C23         6.3490  -21.4140  -10.3190 C.ar    1  MOL1       -0.0160
     24 C24         6.4250  -20.5620   -9.2020 C.ar    1  MOL1        0.1610
     25 C14         2.9240  -21.0720   -7.7070 C.3     1  MOL1        0.0280
     26 N15         1.7010  -20.7710   -8.4800 N.3     1  MOL1       -0.2870
     27 C16         0.6100  -20.3040   -7.6080 C.3     1  MOL1        0.0640
     28 C17        -0.2370  -21.5300   -7.8880 C.3     1  MOL1        0.2720
     29 F18        -1.3950  -21.2550   -8.5940 F       1  MOL1       -0.2040
     30 F19        -0.4330  -22.3370   -6.7790 F       1  MOL1       -0.2040
     31 C20         0.9130  -21.9820   -8.7660 C.3     1  MOL1        0.0640
     32 O25         7.5900  -19.8480   -8.8860 O.3     1  MOL1       -0.4930
     33 C26         8.7070  -20.3950   -8.1930 C.3     1  MOL1        0.0780
@<TRIPOS>BOND
     1     6     5    1
     2     5     7   ar
     3     5     4   ar
     4     7     1   ar
     5     4     3   ar
     6    13    12    2
     7     9    12    1
     8     9     8    1
     9    22    23   ar
    10    22    21   ar
    11    23    24   ar
    12    12    11   am
    13     1     8    1
    14     1     2   ar
    15     3     2   ar
    16    21    20   ar
    17     8    14    1
    18    24    32    1
    19    24    19   ar
    20    14    15   am
    21    32    33    1
    22    11    10    1
    23    31    26    1
    24    31    28    1
    25    20    19   ar
    26    20    25    1
    27    29    28    1
    28    26    25    1
    29    26    27    1
    30    19    18    1
    31    28    27    1
    32    28    30    1
    33    15    17    1
    34    15    16    2
    35    18    17    1
