@<TRIPOS>MOLECULE
L3024_0_out.pdbqt
 33 35 0 0 0
SMALL
GASTEIGER

@<TRIPOS>ATOM
      1 C27         6.7100  -17.6620   -8.9930 C.ar    1  MOL1       -0.0240
      2 C28         6.3730  -19.0140   -8.7990 C.ar    1  MOL1       -0.0570
      3 C29         5.3850  -19.3720   -7.8740 C.ar    1  MOL1       -0.0610
      4 C30         4.7260  -18.3860   -7.1360 C.ar    1  MOL1       -0.0480
      5 C31         5.0490  -17.0370   -7.3210 C.ar    1  MOL1        0.0180
      6 Br32        4.1300  -15.6860   -6.3260 Br      1  MOL1       -0.0510
      7 C33         6.0390  -16.6760   -8.2410 C.ar    1  MOL1       -0.0430
      8  C6         7.8290  -17.2890   -9.9410 C.3     1  MOL1        0.0630
      9  C5         7.4790  -17.7360  -11.3720 C.3     1  MOL1        0.0510
     10  C1         5.3530  -14.5510  -12.0860 C.3     1  MOL1        0.0060
     11  N2         6.0880  -15.6020  -11.3980 N.am    1  MOL1       -0.3590
     12  C3         6.7180  -16.6720  -12.1100 C.2     1  MOL1        0.2220
     13  O4         6.6400  -16.7270  -13.3670 O.2     1  MOL1       -0.2750
     14  N7         9.0890  -17.8980   -9.5040 N.am    1  MOL1       -0.3460
     15  C8         9.9010  -17.3310   -8.4730 C.2     1  MOL1        0.2580
     16  O9         9.5520  -16.2610   -7.9060 O.2     1  MOL1       -0.2710
     17 C10        11.1680  -18.0090   -8.0460 C.3     1  MOL1        0.1670
     18 O11        10.8770  -19.1650   -7.2650 O.3     1  MOL1       -0.4800
     19 C12        11.5120  -20.3900   -7.4870 C.ar    1  MOL1        0.1660
     20 C13        10.8680  -21.4280   -8.1980 C.ar    1  MOL1        0.0120
     21 C21        11.5730  -22.6140   -8.4670 C.ar    1  MOL1       -0.0540
     22 C22        12.8760  -22.7850   -7.9980 C.ar    1  MOL1       -0.0580
     23 C23        13.4910  -21.7780   -7.2540 C.ar    1  MOL1       -0.0160
     24 C24        12.8120  -20.5740   -6.9890 C.ar    1  MOL1        0.1610
     25 C14         9.4390  -21.3000   -8.6770 C.3     1  MOL1        0.0280
     26 N15         9.2760  -21.9480   -9.9940 N.3     1  MOL1       -0.2870
     27 C16         8.4310  -21.1420  -10.8930 C.3     1  MOL1        0.0640
     28 C17         7.3320  -22.1860  -10.9140 C.3     1  MOL1        0.2720
     29 F18         7.1570  -22.7840  -12.1500 F       1  MOL1       -0.2040
     30 F19         6.1520  -21.7650  -10.3230 F       1  MOL1       -0.2040
     31 C20         8.2240  -22.9790   -9.9800 C.3     1  MOL1        0.0640
     32 O25        13.3940  -19.5390   -6.2440 O.3     1  MOL1       -0.4930
     33 C26        14.7730  -19.1880   -6.2920 C.3     1  MOL1        0.0780
@<TRIPOS>BOND
     1    13    12    2
     2    29    28    1
     3    12    11   am
     4    12     9    1
     5    10    11    1
     6     9     8    1
     7    28    27    1
     8    28    30    1
     9    28    31    1
    10    27    26    1
    11    26    31    1
    12    26    25    1
    13     8    14    1
    14     8     1    1
    15    14    15   am
    16     1     2   ar
    17     1     7   ar
    18     2     3   ar
    19    25    20    1
    20    15    17    1
    21    15    16    2
    22    21    20   ar
    23    21    22   ar
    24     7     5   ar
    25    20    19   ar
    26    17    18    1
    27    22    23   ar
    28     3     4   ar
    29    19    18    1
    30    19    24   ar
    31     5     4   ar
    32     5     6    1
    33    23    24   ar
    34    24    32    1
    35    33    32    1
