@<TRIPOS>MOLECULE
L3024_0_out.pdbqt
 33 35 0 0 0
SMALL
GASTEIGER

@<TRIPOS>ATOM
      1 C27        18.0580  -18.9240   -5.3580 C.ar    1  MOL1       -0.0240
      2 C28        17.1790  -19.0580   -4.2680 C.ar    1  MOL1       -0.0570
      3 C29        16.9910  -17.9960   -3.3760 C.ar    1  MOL1       -0.0610
      4 C30        17.6780  -16.7930   -3.5630 C.ar    1  MOL1       -0.0480
      5 C31        18.5520  -16.6460   -4.6450 C.ar    1  MOL1        0.0180
      6 Br32       19.4750  -14.9920   -4.9130 Br      1  MOL1       -0.0510
      7 C33        18.7470  -17.7070   -5.5360 C.ar    1  MOL1       -0.0430
      8  C6        18.3110  -20.1010   -6.2750 C.3     1  MOL1        0.0630
      9  C5        19.2860  -19.6960   -7.3960 C.3     1  MOL1        0.0510
     10  C1        20.1680  -22.1960  -10.2500 C.3     1  MOL1        0.0060
     11  N2        19.6450  -21.0470   -9.5250 N.am    1  MOL1       -0.3590
     12  C3        19.8290  -20.8980   -8.1130 C.2     1  MOL1        0.2220
     13  O4        20.4560  -21.7770   -7.4610 O.2     1  MOL1       -0.2750
     14  N7        17.0470  -20.5850   -6.8410 N.am    1  MOL1       -0.3460
     15  C8        16.3480  -19.8850   -7.8730 C.2     1  MOL1        0.2580
     16  O9        16.8050  -18.8030   -8.3280 O.2     1  MOL1       -0.2710
     17 C10        15.0730  -20.4380   -8.4350 C.3     1  MOL1        0.1670
     18 O11        13.9890  -20.2030   -7.5380 O.3     1  MOL1       -0.4800
     19 C12        12.7310  -19.7930   -7.9870 C.ar    1  MOL1        0.1660
     20 C13        12.5200  -18.4820   -8.4730 C.ar    1  MOL1        0.0120
     21 C21        11.2590  -18.1380   -8.9880 C.ar    1  MOL1       -0.0540
     22 C22        10.2130  -19.0600   -8.9750 C.ar    1  MOL1       -0.0580
     23 C23        10.4100  -20.3360   -8.4480 C.ar    1  MOL1       -0.0160
     24 C24        11.6690  -20.7110   -7.9460 C.ar    1  MOL1        0.1610
     25 C14        13.6150  -17.4390   -8.4540 C.3     1  MOL1        0.0280
     26 N15        13.5790  -16.6770   -7.1900 N.3     1  MOL1       -0.2870
     27 C16        14.1770  -15.3400   -7.3460 C.3     1  MOL1        0.0640
     28 C17        15.3290  -15.6660   -6.4170 C.3     1  MOL1        0.2720
     29 F18        15.3150  -14.9420   -5.2380 F       1  MOL1       -0.2040
     30 F19        16.5630  -15.6910   -7.0460 F       1  MOL1       -0.2040
     31 C20        14.6900  -17.0360   -6.2920 C.3     1  MOL1        0.0640
     32 O25        11.9080  -21.9840   -7.4070 O.3     1  MOL1       -0.4930
     33 C26        12.2950  -23.1220   -8.1690 C.3     1  MOL1        0.0780
@<TRIPOS>BOND
     1    10    11    1
     2    11    12   am
     3    21    22   ar
     4    21    20   ar
     5    22    23   ar
     6    20    25    1
     7    20    19   ar
     8    25    26    1
     9    23    24   ar
    10    17    15    1
    11    17    18    1
    12    16    15    2
    13    33    32    1
    14    12    13    2
    15    12     9    1
    16    19    24   ar
    17    19    18    1
    18    24    32    1
    19    15    14   am
    20     9     8    1
    21    27    26    1
    22    27    28    1
    23    26    31    1
    24    30    28    1
    25    14     8    1
    26    28    31    1
    27    28    29    1
    28     8     1    1
    29     7     1   ar
    30     7     5   ar
    31     1     2   ar
    32     6     5    1
    33     5     4   ar
    34     2     3   ar
    35     4     3   ar
