@<TRIPOS>MOLECULE
L3024_0_out.pdbqt
 33 35 0 0 0
SMALL
GASTEIGER

@<TRIPOS>ATOM
      1 C27        15.5760  -19.1100   -2.5710 C.ar    1  MOL1       -0.0240
      2 C28        15.4190  -20.3290   -1.8870 C.ar    1  MOL1       -0.0570
      3 C29        14.9100  -20.3480   -0.5840 C.ar    1  MOL1       -0.0610
      4 C30        14.5530  -19.1540    0.0470 C.ar    1  MOL1       -0.0480
      5 C31        14.7010  -17.9350   -0.6240 C.ar    1  MOL1        0.0180
      6 Br32       14.1920  -16.3020    0.2330 Br      1  MOL1       -0.0510
      7 C33        15.2150  -17.9110   -1.9240 C.ar    1  MOL1       -0.0430
      8  C6        16.1960  -19.0920   -3.9520 C.3     1  MOL1        0.0630
      9  C5        17.3310  -18.0540   -4.0070 C.3     1  MOL1        0.0510
     10  C1        19.2920  -19.9780   -6.7680 C.3     1  MOL1        0.0060
     11  N2        18.3760  -19.6630   -5.6810 N.am    1  MOL1       -0.3590
     12  C3        18.2940  -18.3490   -5.1200 C.2     1  MOL1        0.2220
     13  O4        19.0310  -17.4250   -5.5620 O.2     1  MOL1       -0.2750
     14  N7        15.1750  -18.7950   -4.9630 N.am    1  MOL1       -0.3460
     15  C8        14.7090  -19.7730   -5.8950 C.2     1  MOL1        0.2580
     16  O9        15.1800  -20.9410   -5.8790 O.2     1  MOL1       -0.2710
     17 C10        13.6440  -19.4240   -6.8910 C.3     1  MOL1        0.1670
     18 O11        14.1750  -19.4370   -8.2140 O.3     1  MOL1       -0.4800
     19 C12        15.3370  -18.7380   -8.5540 C.ar    1  MOL1        0.1660
     20 C13        15.4420  -17.3450   -8.3390 C.ar    1  MOL1        0.0120
     21 C21        16.6560  -16.6970   -8.6210 C.ar    1  MOL1       -0.0540
     22 C22        17.7310  -17.4090   -9.1530 C.ar    1  MOL1       -0.0580
     23 C23        17.6090  -18.7740   -9.4120 C.ar    1  MOL1       -0.0160
     24 C24        16.4090  -19.4490   -9.1180 C.ar    1  MOL1        0.1610
     25 C14        14.2800  -16.5310   -7.8130 C.3     1  MOL1        0.0280
     26 N15        14.7600  -15.4860   -6.8850 N.3     1  MOL1       -0.2870
     27 C16        14.5010  -15.8480   -5.4810 C.3     1  MOL1        0.0640
     28 C17        13.5130  -14.7130   -5.2950 C.3     1  MOL1        0.2720
     29 F18        13.9450  -13.7400   -4.4110 F       1  MOL1       -0.2040
     30 F19        12.2130  -15.1370   -5.0720 F       1  MOL1       -0.2040
     31 C20        13.7970  -14.3810   -6.7470 C.3     1  MOL1        0.0640
     32 O25        16.2450  -20.8200   -9.3640 O.3     1  MOL1       -0.4930
     33 C26        17.2240  -21.8130   -9.0740 C.3     1  MOL1        0.0780
@<TRIPOS>BOND
     1    23    22   ar
     2    23    24   ar
     3    32    24    1
     4    32    33    1
     5    22    21   ar
     6    24    19   ar
     7    21    20   ar
     8    19    20   ar
     9    19    18    1
    10    20    25    1
    11    18    17    1
    12    25    26    1
    13    17    15    1
    14    26    31    1
    15    26    27    1
    16    10    11    1
    17    31    28    1
    18    15    16    2
    19    15    14   am
    20    11    12   am
    21    13    12    2
    22    27    28    1
    23    28    30    1
    24    28    29    1
    25    12     9    1
    26    14     8    1
    27     9     8    1
    28     8     1    1
    29     1     7   ar
    30     1     2   ar
    31     7     5   ar
    32     2     3   ar
    33     5     4   ar
    34     5     6    1
    35     3     4   ar
