@<TRIPOS>MOLECULE
L3024_0_out.pdbqt
 33 35 0 0 0
SMALL
GASTEIGER

@<TRIPOS>ATOM
      1 C27         3.7140  -14.6060  -10.1510 C.ar    1  MOL1       -0.0240
      2 C28         2.3480  -14.2850  -10.2520 C.ar    1  MOL1       -0.0570
      3 C29         1.5070  -14.4130   -9.1410 C.ar    1  MOL1       -0.0610
      4 C30         2.0190  -14.8620   -7.9210 C.ar    1  MOL1       -0.0480
      5 C31         3.3770  -15.1810   -7.8060 C.ar    1  MOL1        0.0180
      6 Br32        4.0820  -15.7750   -6.1300 Br      1  MOL1       -0.0510
      7 C33         4.2200  -15.0600   -8.9160 C.ar    1  MOL1       -0.0430
      8  C6         4.6010  -14.5350  -11.3750 C.3     1  MOL1        0.0630
      9  C5         3.7820  -14.0720  -12.5930 C.3     1  MOL1        0.0510
     10  C1         3.4190  -10.1990  -12.4060 C.3     1  MOL1        0.0060
     11  N2         3.2350  -11.6220  -12.1640 N.am    1  MOL1       -0.3590
     12  C3         3.9890  -12.6120  -12.8730 C.2     1  MOL1        0.2220
     13  O4         4.8370  -12.2610  -13.7380 O.2     1  MOL1       -0.2750
     14  N7         5.2180  -15.8410  -11.6320 N.am    1  MOL1       -0.3460
     15  C8         6.5090  -16.1930  -11.1330 C.2     1  MOL1        0.2580
     16  O9         7.1730  -15.3690  -10.4500 O.2     1  MOL1       -0.2710
     17 C10         7.0820  -17.5520  -11.4030 C.3     1  MOL1        0.1670
     18 O11         7.5800  -18.1320  -10.2000 O.3     1  MOL1       -0.4800
     19 C12         7.9760  -19.4710  -10.1310 C.ar    1  MOL1        0.1660
     20 C13         7.1100  -20.4630   -9.6160 C.ar    1  MOL1        0.0120
     21 C21         7.5190  -21.8070   -9.6390 C.ar    1  MOL1       -0.0540
     22 C22         8.7810  -22.1560  -10.1180 C.ar    1  MOL1       -0.0580
     23 C23         9.6530  -21.1690  -10.5790 C.ar    1  MOL1       -0.0160
     24 C24         9.2590  -19.8180  -10.5850 C.ar    1  MOL1        0.1610
     25 C14         5.7560  -20.1170   -9.0390 C.3     1  MOL1        0.0280
     26 N15         5.1250  -21.3160   -8.4490 N.3     1  MOL1       -0.2870
     27 C16         3.7790  -21.5470   -9.0020 C.3     1  MOL1        0.0640
     28 C17         3.1070  -21.2750   -7.6700 C.3     1  MOL1        0.2720
     29 F18         2.4950  -22.3880   -7.1200 F       1  MOL1       -0.2040
     30 F19         2.3130  -20.1400   -7.6680 F       1  MOL1       -0.2040
     31 C20         4.5070  -21.0330   -7.1430 C.3     1  MOL1        0.0640
     32 O25        10.1050  -18.7970  -11.0390 O.3     1  MOL1       -0.4930
     33 C26        11.3980  -18.5260  -10.5090 C.3     1  MOL1        0.0780
@<TRIPOS>BOND
     1    13    12    2
     2    12     9    1
     3    12    11   am
     4     9     8    1
     5    10    11    1
     6    14     8    1
     7    14    15   am
     8    17    15    1
     9    17    18    1
    10     8     1    1
    11    15    16    2
    12    32    24    1
    13    32    33    1
    14    24    23   ar
    15    24    19   ar
    16    23    22   ar
    17     2     1   ar
    18     2     3   ar
    19    18    19    1
    20     1     7   ar
    21    19    20   ar
    22    22    21   ar
    23    21    20   ar
    24    20    25    1
    25     3     4   ar
    26    25    26    1
    27    27    26    1
    28    27    28    1
    29     7     5   ar
    30    26    31    1
    31     4     5   ar
    32     5     6    1
    33    28    30    1
    34    28    31    1
    35    28    29    1
