@<TRIPOS>MOLECULE
L3024_0_out.pdbqt
 33 35 0 0 0
SMALL
GASTEIGER

@<TRIPOS>ATOM
      1 C27         7.5950  -19.1020   -9.2630 C.ar    1  MOL1       -0.0240
      2 C28         8.4780  -18.5000   -8.3490 C.ar    1  MOL1       -0.0570
      3 C29         8.7170  -17.1220   -8.3980 C.ar    1  MOL1       -0.0610
      4 C30         8.0790  -16.3340   -9.3590 C.ar    1  MOL1       -0.0480
      5 C31         7.1960  -16.9200  -10.2730 C.ar    1  MOL1        0.0180
      6 Br32        6.3050  -15.8360  -11.5740 Br      1  MOL1       -0.0510
      7 C33         6.9580  -18.2970  -10.2300 C.ar    1  MOL1       -0.0430
      8  C6         7.3980  -20.6020   -9.2500 C.3     1  MOL1        0.0630
      9  C5         6.1820  -20.9670   -8.3800 C.3     1  MOL1        0.0510
     10  C1         2.5640  -21.8890   -9.4890 C.3     1  MOL1        0.0060
     11  N2         3.6980  -21.4330   -8.7000 N.am    1  MOL1       -0.3590
     12  C3         5.0340  -21.4540   -9.2150 C.2     1  MOL1        0.2220
     13  O4         5.2550  -21.8830  -10.3810 O.2     1  MOL1       -0.2750
     14  N7         8.6070  -21.2690   -8.7530 N.am    1  MOL1       -0.3460
     15  C8         9.5890  -21.8320   -9.6260 C.2     1  MOL1        0.2580
     16  O9         9.4340  -21.7780  -10.8750 O.2     1  MOL1       -0.2710
     17 C10        10.8190  -22.4790   -9.0650 C.3     1  MOL1        0.1670
     18 O11        11.3700  -21.6830   -8.0190 O.3     1  MOL1       -0.4800
     19 C12        12.6650  -21.8860   -7.5350 C.ar    1  MOL1        0.1660
     20 C13        13.6360  -20.8610   -7.5930 C.ar    1  MOL1        0.0120
     21 C21        14.9020  -21.0820   -7.0240 C.ar    1  MOL1       -0.0540
     22 C22        15.2140  -22.3150   -6.4510 C.ar    1  MOL1       -0.0580
     23 C23        14.2710  -23.3420   -6.4400 C.ar    1  MOL1       -0.0160
     24 C24        12.9900  -23.1370   -6.9860 C.ar    1  MOL1        0.1610
     25 C14        13.3510  -19.5300   -8.2540 C.3     1  MOL1        0.0280
     26 N15        12.9220  -18.5370   -7.2480 N.3     1  MOL1       -0.2870
     27 C16        12.2430  -17.3900   -7.8750 C.3     1  MOL1        0.0640
     28 C17        13.3450  -16.4270   -7.4770 C.3     1  MOL1        0.2720
     29 F18        12.9460  -15.4790   -6.5510 F       1  MOL1       -0.2040
     30 F19        14.0420  -15.9020   -8.5530 F       1  MOL1       -0.2040
     31 C20        14.0180  -17.6340   -6.8550 C.3     1  MOL1        0.0640
     32 O25        12.0140  -24.1440   -6.9960 O.3     1  MOL1       -0.4930
     33 C26        12.1760  -25.4300   -6.4050 C.3     1  MOL1        0.0780
@<TRIPOS>BOND
     1     6     5    1
     2    16    15    2
     3    13    12    2
     4     5     7   ar
     5     5     4   ar
     6     7     1   ar
     7    15    17    1
     8    15    14   am
     9    10    11    1
    10     4     3   ar
    11     1     8    1
    12     1     2   ar
    13     8    14    1
    14     8     9    1
    15    12    11   am
    16    12     9    1
    17    17    18    1
    18    30    28    1
    19     3     2   ar
    20    25    20    1
    21    25    26    1
    22    18    19    1
    23    27    28    1
    24    27    26    1
    25    20    19   ar
    26    20    21   ar
    27    19    24   ar
    28    28    31    1
    29    28    29    1
    30    26    31    1
    31    21    22   ar
    32    32    24    1
    33    32    33    1
    34    24    23   ar
    35    22    23   ar
