@<TRIPOS>MOLECULE
L3024_0_out.pdbqt
 33 35 0 0 0
SMALL
GASTEIGER

@<TRIPOS>ATOM
      1 C27        17.5980  -17.3470   -8.8460 C.ar    1  MOL1       -0.0240
      2 C28        17.9080  -16.7760  -10.0940 C.ar    1  MOL1       -0.0570
      3 C29        18.8100  -17.4070  -10.9570 C.ar    1  MOL1       -0.0610
      4 C30        19.4130  -18.6110  -10.5830 C.ar    1  MOL1       -0.0480
      5 C31        19.1110  -19.1920   -9.3460 C.ar    1  MOL1        0.0180
      6 Br32       19.9190  -20.8520   -8.8440 Br      1  MOL1       -0.0510
      7 C33        18.2130  -18.5610   -8.4790 C.ar    1  MOL1       -0.0430
      8  C6        16.6770  -16.6220   -7.8890 C.3     1  MOL1        0.0630
      9  C5        17.1830  -16.7860   -6.4440 C.3     1  MOL1        0.0510
     10  C1        14.6370  -14.9630   -4.1270 C.3     1  MOL1        0.0060
     11  N2        15.7040  -15.2210   -5.0830 N.am    1  MOL1       -0.3590
     12  C3        16.0850  -16.5520   -5.4470 C.2     1  MOL1        0.2220
     13  O4        15.4960  -17.5420   -4.9320 O.2     1  MOL1       -0.2750
     14  N7        15.3080  -17.1310   -8.0180 N.am    1  MOL1       -0.3460
     15  C8        14.1820  -16.2710   -8.2070 C.2     1  MOL1        0.2580
     16  O9        14.3380  -15.0220   -8.2600 O.2     1  MOL1       -0.2710
     17 C10        12.8060  -16.8460   -8.3590 C.3     1  MOL1        0.1670
     18 O11        12.5580  -17.8220   -7.3500 O.3     1  MOL1       -0.4800
     19 C12        12.0740  -19.0960   -7.6540 C.ar    1  MOL1        0.1660
     20 C13        10.9890  -19.2730   -8.5430 C.ar    1  MOL1        0.0120
     21 C21        10.5860  -20.5760   -8.8820 C.ar    1  MOL1       -0.0540
     22 C22        11.2150  -21.6820   -8.3120 C.ar    1  MOL1       -0.0580
     23 C23        12.2520  -21.5050   -7.3950 C.ar    1  MOL1       -0.0160
     24 C24        12.6860  -20.2100   -7.0560 C.ar    1  MOL1        0.1610
     25 C14        10.2480  -18.0970   -9.1400 C.3     1  MOL1        0.0280
     26 N15         8.9780  -17.8690   -8.4220 N.3     1  MOL1       -0.2870
     27 C16         7.8140  -18.0840   -9.2980 C.3     1  MOL1        0.0640
     28 C17         7.4120  -16.6230   -9.2430 C.3     1  MOL1        0.2720
     29 F18         6.2120  -16.4010   -8.5890 F       1  MOL1       -0.2040
     30 F19         7.5170  -15.9700  -10.4600 F       1  MOL1       -0.2040
     31 C20         8.6270  -16.4400   -8.3550 C.3     1  MOL1        0.0640
     32 O25        13.7240  -19.9880   -6.1390 O.3     1  MOL1       -0.4930
     33 C26        14.1160  -20.9110   -5.1280 C.3     1  MOL1        0.0780
@<TRIPOS>BOND
     1     3     4   ar
     2     3     2   ar
     3     4     5   ar
     4    30    28    1
     5     2     1   ar
     6     5     6    1
     7     5     7   ar
     8    27    28    1
     9    27    26    1
    10    28    29    1
    11    28    31    1
    12    25    20    1
    13    25    26    1
    14    21    20   ar
    15    21    22   ar
    16     1     7   ar
    17     1     8    1
    18    20    19   ar
    19    26    31    1
    20    17    15    1
    21    17    18    1
    22    22    23   ar
    23    16    15    2
    24    15    14   am
    25    14     8    1
    26     8     9    1
    27    19    18    1
    28    19    24   ar
    29    23    24   ar
    30    24    32    1
    31     9    12    1
    32    32    33    1
    33    12    11   am
    34    12    13    2
    35    11    10    1
