@<TRIPOS>MOLECULE
L3024_0_out.pdbqt
 33 35 0 0 0
SMALL
GASTEIGER

@<TRIPOS>ATOM
      1 C27        17.7920  -18.8180   -5.0810 C.ar    1  MOL1       -0.0240
      2 C28        18.5500  -17.6720   -5.3820 C.ar    1  MOL1       -0.0570
      3 C29        18.5020  -16.5520   -4.5450 C.ar    1  MOL1       -0.0610
      4 C30        17.6990  -16.5650   -3.4010 C.ar    1  MOL1       -0.0480
      5 C31        16.9430  -17.7000   -3.0880 C.ar    1  MOL1        0.0180
      6 Br32       15.8600  -17.7250   -1.5110 Br      1  MOL1       -0.0510
      7 C33        16.9840  -18.8200   -3.9260 C.ar    1  MOL1       -0.0430
      8  C6        17.7930  -19.9980   -6.0300 C.3     1  MOL1        0.0630
      9  C5        18.8940  -19.8200   -7.0900 C.3     1  MOL1        0.0510
     10  C1        19.4480  -23.5370   -8.1160 C.3     1  MOL1        0.0060
     11  N2        19.3030  -22.3230   -7.3250 N.am    1  MOL1       -0.3590
     12  C3        19.0500  -21.0520   -7.9340 C.2     1  MOL1        0.2220
     13  O4        18.9510  -20.9600   -9.1880 O.2     1  MOL1       -0.2750
     14  N7        16.4790  -20.1380   -6.6680 N.am    1  MOL1       -0.3460
     15  C8        16.0180  -19.2430   -7.6820 C.2     1  MOL1        0.2580
     16  O9        16.7400  -18.2820   -8.0580 O.2     1  MOL1       -0.2710
     17 C10        14.6770  -19.4470   -8.3210 C.3     1  MOL1        0.1670
     18 O11        14.1550  -18.2080   -8.7930 O.3     1  MOL1       -0.4800
     19 C12        13.1820  -17.4960   -8.0870 C.ar    1  MOL1        0.1660
     20 C13        11.8400  -17.9380   -8.0440 C.ar    1  MOL1        0.0120
     21 C21        10.9120  -17.2360   -7.2570 C.ar    1  MOL1       -0.0540
     22 C22        11.2960  -16.0870   -6.5650 C.ar    1  MOL1       -0.0580
     23 C23        12.6090  -15.6240   -6.6500 C.ar    1  MOL1       -0.0160
     24 C24        13.5610  -16.3220   -7.4150 C.ar    1  MOL1        0.1610
     25 C14        11.3740  -19.1480   -8.8230 C.3     1  MOL1        0.0280
     26 N15         9.9830  -18.9620   -9.2830 N.3     1  MOL1       -0.2870
     27 C16         9.1900  -20.1920   -9.1230 C.3     1  MOL1        0.0640
     28 C17         9.0260  -20.3680  -10.6200 C.3     1  MOL1        0.2720
     29 F18         7.7220  -20.2160  -11.0570 F       1  MOL1       -0.2040
     30 F19         9.6580  -21.4940  -11.1210 F       1  MOL1       -0.2040
     31 C20         9.8570  -19.1060  -10.7440 C.3     1  MOL1        0.0640
     32 O25        14.8900  -15.8890   -7.5270 O.3     1  MOL1       -0.4930
     33 C26        15.2820  -14.5370   -7.7390 C.3     1  MOL1        0.0780
@<TRIPOS>BOND
     1    30    28    1
     2    29    28    1
     3    31    28    1
     4    31    26    1
     5    28    27    1
     6    26    27    1
     7    26    25    1
     8    13    12    2
     9    25    20    1
    10    18    17    1
    11    18    19    1
    12    17    15    1
    13    10    11    1
    14    19    20   ar
    15    19    24   ar
    16    16    15    2
    17    20    21   ar
    18    12    11   am
    19    12     9    1
    20    33    32    1
    21    15    14   am
    22    32    24    1
    23    24    23   ar
    24    21    22   ar
    25     9     8    1
    26    14     8    1
    27    23    22   ar
    28     8     1    1
    29     2     1   ar
    30     2     3   ar
    31     1     7   ar
    32     3     4   ar
    33     7     5   ar
    34     4     5   ar
    35     5     6    1
