@<TRIPOS>MOLECULE
L3024_0_out.pdbqt
 33 35 0 0 0
SMALL
GASTEIGER

@<TRIPOS>ATOM
      1 C27         6.9990  -16.9760  -10.4160 C.ar    1  MOL1       -0.0240
      2 C28         7.2550  -17.6390  -11.6310 C.ar    1  MOL1       -0.0570
      3 C29         6.8060  -17.0980  -12.8400 C.ar    1  MOL1       -0.0610
      4 C30         6.1000  -15.8920  -12.8500 C.ar    1  MOL1       -0.0480
      5 C31         5.8420  -15.2210  -11.6490 C.ar    1  MOL1        0.0180
      6 Br32        4.8940  -13.5590  -11.6650 Br      1  MOL1       -0.0510
      7 C33         6.2840  -15.7620  -10.4370 C.ar    1  MOL1       -0.0430
      8  C6         7.4240  -17.6050   -9.1070 C.3     1  MOL1        0.0630
      9  C5         7.2460  -16.5980   -7.9560 C.3     1  MOL1        0.0510
     10  C1         4.0030  -15.6770   -6.0050 C.3     1  MOL1        0.0060
     11  N2         5.3250  -15.6050   -6.6100 N.am    1  MOL1       -0.3590
     12  C3         5.8840  -16.7060   -7.3340 C.2     1  MOL1        0.2220
     13  O4         5.2310  -17.7790   -7.4570 O.2     1  MOL1       -0.2750
     14  N7         8.8170  -18.0560   -9.1880 N.am    1  MOL1       -0.3460
     15  C8         9.2390  -19.3390   -8.7190 C.2     1  MOL1        0.2580
     16  O9         8.4070  -20.1310   -8.2010 O.2     1  MOL1       -0.2710
     17 C10        10.6720  -19.7600   -8.8490 C.3     1  MOL1        0.1670
     18 O11        10.9920  -20.7490   -7.8740 O.3     1  MOL1       -0.4800
     19 C12        12.2960  -21.2180   -7.6930 C.ar    1  MOL1        0.1660
     20 C13        13.3250  -20.3600   -7.2420 C.ar    1  MOL1        0.0120
     21 C21        14.6030  -20.8910   -6.9980 C.ar    1  MOL1       -0.0540
     22 C22        14.8680  -22.2380   -7.2440 C.ar    1  MOL1       -0.0580
     23 C23        13.8640  -23.0720   -7.7370 C.ar    1  MOL1       -0.0160
     24 C24        12.5710  -22.5670   -7.9700 C.ar    1  MOL1        0.1610
     25 C14        13.0890  -18.8830   -7.0150 C.3     1  MOL1        0.0280
     26 N15        14.0670  -18.0810   -7.7770 N.3     1  MOL1       -0.2870
     27 C16        14.7270  -17.0780   -6.9240 C.3     1  MOL1        0.0640
     28 C17        14.0980  -15.9200   -7.6730 C.3     1  MOL1        0.2720
     29 F18        15.0100  -15.1500   -8.3740 F       1  MOL1       -0.2040
     30 F19        13.2080  -15.1810   -6.9110 F       1  MOL1       -0.2040
     31 C20        13.4270  -16.9820   -8.5210 C.3     1  MOL1        0.0640
     32 O25        11.5350  -23.3710   -8.4660 O.3     1  MOL1       -0.4930
     33 C26        11.4310  -24.7740   -8.2500 C.3     1  MOL1        0.0780
@<TRIPOS>BOND
     1     4     3   ar
     2     4     5   ar
     3     3     2   ar
     4     6     5    1
     5     5     7   ar
     6     2     1   ar
     7     7     1   ar
     8     1     8    1
     9    14     8    1
    10    14    15   am
    11     8     9    1
    12    17    15    1
    13    17    18    1
    14    15    16    2
    15    31    26    1
    16    31    28    1
    17    32    33    1
    18    32    24    1
    19    29    28    1
    20    24    23   ar
    21    24    19   ar
    22     9    12    1
    23    18    19    1
    24    26    25    1
    25    26    27    1
    26    23    22   ar
    27    19    20   ar
    28    28    27    1
    29    28    30    1
    30    13    12    2
    31    12    11   am
    32    22    21   ar
    33    20    25    1
    34    20    21   ar
    35    11    10    1
