@<TRIPOS>MOLECULE
L3024_0_out.pdbqt
 33 35 0 0 0
SMALL
GASTEIGER

@<TRIPOS>ATOM
      1 C27         0.1190  -22.2510   -9.5720 C.ar    1  MOL1       -0.0240
      2 C28        -0.3390  -23.5750   -9.4410 C.ar    1  MOL1       -0.0570
      3 C29        -1.1190  -24.1550  -10.4470 C.ar    1  MOL1       -0.0610
      4 C30        -1.4490  -23.4230  -11.5900 C.ar    1  MOL1       -0.0480
      5 C31        -0.9960  -22.1060  -11.7340 C.ar    1  MOL1        0.0180
      6 Br32       -1.4300  -21.1110  -13.3090 Br      1  MOL1       -0.0510
      7 C33        -0.2210  -21.5200  -10.7280 C.ar    1  MOL1       -0.0430
      8  C6         0.9010  -21.6060   -8.4480 C.3     1  MOL1        0.0630
      9  C5         0.0950  -20.4400   -7.8460 C.3     1  MOL1        0.0510
     10  C1        -3.7560  -20.4700   -7.2610 C.3     1  MOL1        0.0060
     11  N2        -2.4170  -20.0640   -7.6630 N.am    1  MOL1       -0.3590
     12  C3        -1.2710  -20.8830   -7.4090 C.2     1  MOL1        0.2220
     13  O4        -1.4040  -21.9890   -6.8170 O.2     1  MOL1       -0.2750
     14  N7         2.2010  -21.1360   -8.9370 N.am    1  MOL1       -0.3460
     15  C8         3.3530  -21.0460   -8.0950 C.2     1  MOL1        0.2580
     16  O9         3.2770  -21.3660   -6.8790 O.2     1  MOL1       -0.2710
     17 C10         4.6660  -20.5840   -8.6530 C.3     1  MOL1        0.1670
     18 O11         5.2680  -19.6280   -7.7840 O.3     1  MOL1       -0.4800
     19 C12         6.3140  -18.8010   -8.2030 C.ar    1  MOL1        0.1660
     20 C13         7.5700  -19.3390   -8.5680 C.ar    1  MOL1        0.0120
     21 C21         8.5670  -18.4790   -9.0580 C.ar    1  MOL1       -0.0540
     22 C22         8.3400  -17.1050   -9.1390 C.ar    1  MOL1       -0.0580
     23 C23         7.1170  -16.5710   -8.7310 C.ar    1  MOL1       -0.0160
     24 C24         6.0960  -17.4150   -8.2550 C.ar    1  MOL1        0.1610
     25 C14         7.8710  -20.8160   -8.4440 C.3     1  MOL1        0.0280
     26 N15         8.2940  -21.3670   -9.7470 N.3     1  MOL1       -0.2870
     27 C16         7.3990  -20.9370  -10.8340 C.3     1  MOL1        0.0640
     28 C17         6.8980  -22.3460  -11.0790 C.3     1  MOL1        0.2720
     29 F18         7.2730  -22.8640  -12.3070 F       1  MOL1       -0.2040
     30 F19         5.5560  -22.5200  -10.7820 F       1  MOL1       -0.2040
     31 C20         7.8220  -22.7480   -9.9460 C.3     1  MOL1        0.0640
     32 O25         4.8540  -16.9180   -7.8340 O.3     1  MOL1       -0.4930
     33 C26         4.6020  -16.3680   -6.5460 C.3     1  MOL1        0.0780
@<TRIPOS>BOND
     1     6     5    1
     2    29    28    1
     3     5     4   ar
     4     5     7   ar
     5     4     3   ar
     6    28    27    1
     7    28    30    1
     8    28    31    1
     9    27    26    1
    10     7     1   ar
    11     3     2   ar
    12    31    26    1
    13    26    25    1
    14     1     2   ar
    15     1     8    1
    16    22    21   ar
    17    22    23   ar
    18    21    20   ar
    19    14     8    1
    20    14    15   am
    21    23    24   ar
    22    17    15    1
    23    17    18    1
    24    20    25    1
    25    20    19   ar
    26     8     9    1
    27    24    19   ar
    28    24    32    1
    29    19    18    1
    30    15    16    2
    31     9    12    1
    32    32    33    1
    33    11    12   am
    34    11    10    1
    35    12    13    2
