@<TRIPOS>MOLECULE
L3024_0_out.pdbqt
 33 35 0 0 0
SMALL
GASTEIGER

@<TRIPOS>ATOM
      1 C27        11.6250  -18.7070   -8.3880 C.ar    1  MOL1       -0.0240
      2 C28        11.1090  -20.0150   -8.4350 C.ar    1  MOL1       -0.0570
      3 C29         9.7310  -20.2280   -8.5520 C.ar    1  MOL1       -0.0610
      4 C30         8.8560  -19.1400   -8.6230 C.ar    1  MOL1       -0.0480
      5 C31         9.3570  -17.8340   -8.5800 C.ar    1  MOL1        0.0180
      6 Br32        8.1610  -16.3450   -8.6990 Br      1  MOL1       -0.0510
      7 C33        10.7330  -17.6170   -8.4580 C.ar    1  MOL1       -0.0430
      8  C6        13.1080  -18.4850   -8.1880 C.3     1  MOL1        0.0630
      9  C5        13.8390  -19.8380   -8.1140 C.3     1  MOL1        0.0510
     10  C1        16.8650  -18.6380  -10.2520 C.3     1  MOL1        0.0060
     11  N2        15.5340  -18.7530   -9.6740 N.am    1  MOL1       -0.3590
     12  C3        15.2180  -19.7520   -8.6990 C.2     1  MOL1        0.2220
     13  O4        16.1030  -20.5680   -8.3210 O.2     1  MOL1       -0.2750
     14  N7        13.3460  -17.7020   -6.9700 N.am    1  MOL1       -0.3460
     15  C8        14.0250  -16.4450   -6.9840 C.2     1  MOL1        0.2580
     16  O9        14.4580  -15.9690   -8.0670 O.2     1  MOL1       -0.2710
     17 C10        14.2180  -15.6740   -5.7130 C.3     1  MOL1        0.1670
     18 O11        15.5140  -15.9210   -5.1710 O.3     1  MOL1       -0.4800
     19 C12        15.8020  -17.0750   -4.4380 C.ar    1  MOL1        0.1660
     20 C13        15.3240  -17.2410   -3.1180 C.ar    1  MOL1        0.0120
     21 C21        15.5720  -18.4500   -2.4460 C.ar    1  MOL1       -0.0540
     22 C22        16.3210  -19.4570   -3.0540 C.ar    1  MOL1       -0.0580
     23 C23        16.8350  -19.2710   -4.3380 C.ar    1  MOL1       -0.0160
     24 C24        16.5830  -18.0760   -5.0380 C.ar    1  MOL1        0.1610
     25 C14        14.5530  -16.1510   -2.4070 C.3     1  MOL1        0.0280
     26 N15        15.4730  -15.1020   -1.9200 N.3     1  MOL1       -0.2870
     27 C16        15.7940  -15.2810   -0.4940 C.3     1  MOL1        0.0640
     28 C17        15.0860  -14.0010   -0.0990 C.3     1  MOL1        0.2720
     29 F18        15.9370  -13.0190    0.3780 F       1  MOL1       -0.2040
     30 F19        13.9660  -14.2040    0.6910 F       1  MOL1       -0.2040
     31 C20        14.7640  -13.8580   -1.5740 C.3     1  MOL1        0.0640
     32 O25        17.0820  -17.8490   -6.3290 O.3     1  MOL1       -0.4930
     33 C26        18.3490  -18.3010   -6.7940 C.3     1  MOL1        0.0780
@<TRIPOS>BOND
     1    10    11    1
     2    11    12   am
     3     6     5    1
     4    12    13    2
     5    12     9    1
     6     4     5   ar
     7     4     3   ar
     8     5     7   ar
     9     3     2   ar
    10     7     1   ar
    11     2     1   ar
    12     1     8    1
    13     8     9    1
    14     8    14    1
    15    16    15    2
    16    15    14   am
    17    15    17    1
    18    33    32    1
    19    32    24    1
    20    17    18    1
    21    18    19    1
    22    24    19   ar
    23    24    23   ar
    24    19    20   ar
    25    23    22   ar
    26    20    21   ar
    27    20    25    1
    28    22    21   ar
    29    25    26    1
    30    26    31    1
    31    26    27    1
    32    31    28    1
    33    27    28    1
    34    28    29    1
    35    28    30    1
