@<TRIPOS>MOLECULE
L3024_0_out.pdbqt
 33 35 0 0 0
SMALL
GASTEIGER

@<TRIPOS>ATOM
      1 C27        15.4830  -18.0560   -3.5580 C.ar    1  MOL1       -0.0240
      2 C28        15.6950  -19.4060   -3.2220 C.ar    1  MOL1       -0.0570
      3 C29        15.5180  -19.8440   -1.9060 C.ar    1  MOL1       -0.0610
      4 C30        15.1290  -18.9420   -0.9120 C.ar    1  MOL1       -0.0480
      5 C31        14.9120  -17.5970   -1.2330 C.ar    1  MOL1        0.0180
      6 Br32       14.3580  -16.3660    0.1230 Br      1  MOL1       -0.0510
      7 C33        15.0930  -17.1540   -2.5470 C.ar    1  MOL1       -0.0430
      8  C6        15.7470  -17.5760   -4.9680 C.3     1  MOL1        0.0630
      9  C5        15.8700  -16.0420   -4.9880 C.3     1  MOL1        0.0510
     10  C1        19.6450  -15.2280   -4.4780 C.3     1  MOL1        0.0060
     11  N2        18.2680  -15.6340   -4.2350 N.am    1  MOL1       -0.3590
     12  C3        17.2790  -15.6060   -5.2690 C.2     1  MOL1        0.2220
     13  O4        17.5870  -15.2160   -6.4280 O.2     1  MOL1       -0.2750
     14  N7        14.6750  -18.0200   -5.8650 N.am    1  MOL1       -0.3460
     15  C8        14.8540  -18.1400   -7.2780 C.2     1  MOL1        0.2580
     16  O9        15.9610  -17.8500   -7.8050 O.2     1  MOL1       -0.2710
     17 C10        13.7310  -18.6230   -8.1460 C.3     1  MOL1        0.1670
     18 O11        12.5320  -18.7520   -7.3860 O.3     1  MOL1       -0.4800
     19 C12        11.3640  -18.0640   -7.7220 C.ar    1  MOL1        0.1660
     20 C13        10.4320  -18.6070   -8.6360 C.ar    1  MOL1        0.0120
     21 C21         9.2330  -17.9180   -8.8840 C.ar    1  MOL1       -0.0540
     22 C22         8.9850  -16.6880   -8.2750 C.ar    1  MOL1       -0.0580
     23 C23         9.9290  -16.1290   -7.4130 C.ar    1  MOL1       -0.0160
     24 C24        11.1280  -16.8110   -7.1330 C.ar    1  MOL1        0.1610
     25 C14        10.6900  -19.9120   -9.3560 C.3     1  MOL1        0.0280
     26 N15         9.7700  -20.9610   -8.8700 N.3     1  MOL1       -0.2870
     27 C16        10.3000  -22.3100   -9.1290 C.3     1  MOL1        0.0640
     28 C17         9.1930  -22.6360  -10.1120 C.3     1  MOL1        0.2720
     29 F18         8.3370  -23.6320   -9.6740 F       1  MOL1       -0.2040
     30 F19         9.6360  -22.8080  -11.4130 F       1  MOL1       -0.2040
     31 C20         8.6860  -21.2360   -9.8290 C.3     1  MOL1        0.0640
     32 O25        12.1020  -16.2840   -6.2730 O.3     1  MOL1       -0.4930
     33 C26        12.7130  -15.0080   -6.4340 C.3     1  MOL1        0.0780
@<TRIPOS>BOND
     1    30    28    1
     2    28    31    1
     3    28    29    1
     4    28    27    1
     5    31    26    1
     6    25    26    1
     7    25    20    1
     8    27    26    1
     9    21    20   ar
    10    21    22   ar
    11    20    19   ar
    12    22    23   ar
    13    17    18    1
    14    17    15    1
    15    16    15    2
    16    19    18    1
    17    19    24   ar
    18    23    24   ar
    19    15    14   am
    20    24    32    1
    21    33    32    1
    22    13    12    2
    23    14     8    1
    24    12     9    1
    25    12    11   am
    26     9     8    1
    27     8     1    1
    28    10    11    1
    29     1     2   ar
    30     1     7   ar
    31     2     3   ar
    32     7     5   ar
    33     3     4   ar
    34     5     4   ar
    35     5     6    1
