@<TRIPOS>MOLECULE
L3024_0_out.pdbqt
 33 35 0 0 0
SMALL
GASTEIGER

@<TRIPOS>ATOM
      1 C27         1.0970  -22.0010   -9.1430 C.ar    1  MOL1       -0.0240
      2 C28         2.0480  -22.9490   -9.5610 C.ar    1  MOL1       -0.0570
      3 C29         1.8010  -23.7540  -10.6790 C.ar    1  MOL1       -0.0610
      4 C30         0.6050  -23.6200  -11.3890 C.ar    1  MOL1       -0.0480
      5 C31        -0.3490  -22.6790  -10.9850 C.ar    1  MOL1        0.0180
      6 Br32       -1.9770  -22.4810  -11.9700 Br      1  MOL1       -0.0510
      7 C33        -0.1080  -21.8770   -9.8650 C.ar    1  MOL1       -0.0430
      8  C6         1.3390  -21.1860   -7.8910 C.3     1  MOL1        0.0630
      9  C5         0.2640  -20.0930   -7.7570 C.3     1  MOL1        0.0510
     10  C1        -3.5710  -20.4720   -7.1930 C.3     1  MOL1        0.0060
     11  N2        -2.2710  -19.9350   -7.5670 N.am    1  MOL1       -0.3590
     12  C3        -1.0610  -20.6700   -7.3500 C.2     1  MOL1        0.2220
     13  O4        -1.1010  -21.8120   -6.8170 O.2     1  MOL1       -0.2750
     14  N7         2.6800  -20.5920   -7.9230 N.am    1  MOL1       -0.3460
     15  C8         3.8010  -21.1860   -7.2650 C.2     1  MOL1        0.2580
     16  O9         3.6620  -22.2570   -6.6160 O.2     1  MOL1       -0.2710
     17 C10         5.1560  -20.5500   -7.3520 C.3     1  MOL1        0.1670
     18 O11         5.1920  -19.5970   -8.4120 O.3     1  MOL1       -0.4800
     19 C12         6.2560  -18.7050   -8.5700 C.ar    1  MOL1        0.1660
     20 C13         7.3710  -19.0320   -9.3760 C.ar    1  MOL1        0.0120
     21 C21         8.3800  -18.0740   -9.5710 C.ar    1  MOL1       -0.0540
     22 C22         8.3100  -16.8330   -8.9390 C.ar    1  MOL1       -0.0580
     23 C23         7.2340  -16.5310   -8.1030 C.ar    1  MOL1       -0.0160
     24 C24         6.2010  -17.4670   -7.9090 C.ar    1  MOL1        0.1610
     25 C14         7.5070  -20.3860  -10.0350 C.3     1  MOL1        0.0280
     26 N15         8.1890  -21.3340   -9.1300 N.3     1  MOL1       -0.2870
     27 C16         9.6150  -21.4790   -9.4710 C.3     1  MOL1        0.0640
     28 C17         9.4440  -22.9280   -9.8820 C.3     1  MOL1        0.2720
     29 F18        10.0970  -23.8220   -9.0520 F       1  MOL1       -0.2040
     30 F19         9.6620  -23.1530  -11.2320 F       1  MOL1       -0.2040
     31 C20         7.9820  -22.7350   -9.5330 C.3     1  MOL1        0.0640
     32 O25         5.1030  -17.2030   -7.0770 O.3     1  MOL1       -0.4930
     33 C26         4.7940  -15.9250   -6.5320 C.3     1  MOL1        0.0780
@<TRIPOS>BOND
     1     6     5    1
     2     4     5   ar
     3     4     3   ar
     4    30    28    1
     5     5     7   ar
     6     3     2   ar
     7    25    20    1
     8    25    26    1
     9    28    31    1
    10    28    27    1
    11    28    29    1
    12     7     1   ar
    13    21    20   ar
    14    21    22   ar
    15     2     1   ar
    16    31    26    1
    17    27    26    1
    18    20    19   ar
    19     1     8    1
    20    22    23   ar
    21    19    18    1
    22    19    24   ar
    23    18    17    1
    24    23    24   ar
    25    14     8    1
    26    14    15   am
    27    24    32    1
    28     8     9    1
    29     9    12    1
    30    11    12   am
    31    11    10    1
    32    17    15    1
    33    12    13    2
    34    15    16    2
    35    32    33    1
