@<TRIPOS>MOLECULE
L3024_0_out.pdbqt
 33 35 0 0 0
SMALL
GASTEIGER

@<TRIPOS>ATOM
      1 C27         3.9290  -14.6850   -9.9530 C.ar    1  MOL1       -0.0240
      2 C28         3.4470  -15.1830   -8.7290 C.ar    1  MOL1       -0.0570
      3 C29         2.1620  -14.8500   -8.2860 C.ar    1  MOL1       -0.0610
      4 C30         1.3480  -14.0180   -9.0590 C.ar    1  MOL1       -0.0480
      5 C31         1.8130  -13.5180  -10.2800 C.ar    1  MOL1        0.0180
      6 Br32        0.6890  -12.3980  -11.3480 Br      1  MOL1       -0.0510
      7 C33         3.0990  -13.8450  -10.7240 C.ar    1  MOL1       -0.0430
      8  C6         5.3450  -14.9900  -10.3900 C.3     1  MOL1        0.0630
      9  C5         5.4470  -14.9350  -11.9250 C.3     1  MOL1        0.0510
     10  C1         4.4170  -11.8700  -14.0970 C.3     1  MOL1        0.0060
     11  N2         4.5470  -13.2270  -13.5870 N.am    1  MOL1       -0.3590
     12  C3         5.3410  -13.5260  -12.4340 C.2     1  MOL1        0.2220
     13  O4         5.9570  -12.6040  -11.8330 O.2     1  MOL1       -0.2750
     14  N7         5.7580  -16.3070   -9.8930 N.am    1  MOL1       -0.3460
     15  C8         7.1100  -16.6070   -9.5420 C.2     1  MOL1        0.2580
     16  O9         8.0080  -15.7310   -9.6630 O.2     1  MOL1       -0.2710
     17 C10         7.4740  -17.9620   -9.0130 C.3     1  MOL1        0.1670
     18 O11         7.4760  -18.9240  -10.0640 O.3     1  MOL1       -0.4800
     19 C12         7.7770  -20.2700   -9.8380 C.ar    1  MOL1        0.1660
     20 C13         6.7690  -21.1940   -9.4800 C.ar    1  MOL1        0.0120
     21 C21         7.1020  -22.5520   -9.3390 C.ar    1  MOL1       -0.0540
     22 C22         8.4200  -22.9770   -9.5020 C.ar    1  MOL1       -0.0580
     23 C23         9.4220  -22.0560   -9.8060 C.ar    1  MOL1       -0.0160
     24 C24         9.1090  -20.6940   -9.9720 C.ar    1  MOL1        0.1610
     25 C14         5.3390  -20.7610   -9.2420 C.3     1  MOL1        0.0280
     26 N15         4.5700  -21.8500   -8.6050 N.3     1  MOL1       -0.2870
     27 C16         3.1680  -21.8590   -9.0560 C.3     1  MOL1        0.0640
     28 C17         2.6460  -21.4960   -7.6800 C.3     1  MOL1        0.2720
     29 F18         1.9060  -22.5020   -7.0830 F       1  MOL1       -0.2040
     30 F19         2.0460  -20.2490   -7.6220 F       1  MOL1       -0.2040
     31 C20         4.1010  -21.4840   -7.2570 C.3     1  MOL1        0.0640
     32 O25        10.0860  -19.7350  -10.2760 O.3     1  MOL1       -0.4930
     33 C26        11.1350  -19.3460   -9.3950 C.3     1  MOL1        0.0780
@<TRIPOS>BOND
     1    10    11    1
     2    11    12   am
     3    12     9    1
     4    12    13    2
     5     9     8    1
     6     6     5    1
     7     7     5   ar
     8     7     1   ar
     9     8     1    1
    10     8    14    1
    11     5     4   ar
    12    32    24    1
    13    32    33    1
    14    18    19    1
    15    18    17    1
    16    24    19   ar
    17    24    23   ar
    18     1     2   ar
    19    14    15   am
    20    19    20   ar
    21    23    22   ar
    22    16    15    2
    23    15    17    1
    24    22    21   ar
    25    20    21   ar
    26    20    25    1
    27    25    26    1
    28     4     3   ar
    29    27    26    1
    30    27    28    1
    31     2     3   ar
    32    26    31    1
    33    28    30    1
    34    28    31    1
    35    28    29    1
