@<TRIPOS>MOLECULE
L3024_0_out.pdbqt
 33 35 0 0 0
SMALL
GASTEIGER

@<TRIPOS>ATOM
      1 C27         6.7860  -20.0510   -9.4110 C.ar    1  MOL1       -0.0240
      2 C28         6.8990  -20.9300  -10.5040 C.ar    1  MOL1       -0.0570
      3 C29         5.8830  -21.8520  -10.7790 C.ar    1  MOL1       -0.0610
      4 C30         4.7460  -21.9050   -9.9670 C.ar    1  MOL1       -0.0480
      5 C31         4.6200  -21.0340   -8.8790 C.ar    1  MOL1        0.0180
      6 Br32        3.0540  -21.0930   -7.7820 Br      1  MOL1       -0.0510
      7 C33         5.6360  -20.1150   -8.5980 C.ar    1  MOL1       -0.0430
      8  C6         7.9220  -19.1080   -9.0770 C.3     1  MOL1        0.0630
      9  C5         8.3960  -18.3830  -10.3500 C.3     1  MOL1        0.0510
     10  C1         6.0600  -15.8500  -12.1670 C.3     1  MOL1        0.0060
     11  N2         6.8780  -17.0180  -11.8730 N.am    1  MOL1       -0.3590
     12  C3         7.5690  -17.1610  -10.6270 C.2     1  MOL1        0.2220
     13  O4         7.4840  -16.2580   -9.7500 O.2     1  MOL1       -0.2750
     14  N7         9.0300  -19.8450   -8.4600 N.am    1  MOL1       -0.3460
     15  C8        10.0960  -19.1920   -7.7670 C.2     1  MOL1        0.2580
     16  O9        10.1180  -17.9360   -7.6750 O.2     1  MOL1       -0.2710
     17 C10        11.1910  -19.9950   -7.1310 C.3     1  MOL1        0.1670
     18 O11        12.3160  -20.0820   -8.0030 O.3     1  MOL1       -0.4800
     19 C12        13.5850  -20.4410   -7.5410 C.ar    1  MOL1        0.1660
     20 C13        14.5300  -19.4600   -7.1630 C.ar    1  MOL1        0.0120
     21 C21        15.7650  -19.8670   -6.6300 C.ar    1  MOL1       -0.0540
     22 C22        16.0750  -21.2220   -6.5180 C.ar    1  MOL1       -0.0580
     23 C23        15.1610  -22.1890   -6.9380 C.ar    1  MOL1       -0.0160
     24 C24        13.9100  -21.8050   -7.4570 C.ar    1  MOL1        0.1610
     25 C14        14.2500  -17.9820   -7.3190 C.3     1  MOL1        0.0280
     26 N15        15.4930  -17.2010   -7.1550 N.3     1  MOL1       -0.2870
     27 C16        15.2320  -15.8910   -6.5350 C.3     1  MOL1        0.0640
     28 C17        15.6340  -15.1360   -7.7870 C.3     1  MOL1        0.2720
     29 F18        16.7860  -14.3850   -7.6370 F       1  MOL1       -0.2040
     30 F19        14.5890  -14.4490   -8.3840 F       1  MOL1       -0.2040
     31 C20        15.8790  -16.5040   -8.3940 C.3     1  MOL1        0.0640
     32 O25        12.9640  -22.7450   -7.8910 O.3     1  MOL1       -0.4930
     33 C26        13.2840  -24.0370   -8.3940 C.3     1  MOL1        0.0780
@<TRIPOS>BOND
     1    10    11    1
     2    11    12   am
     3     3     2   ar
     4     3     4   ar
     5    12     9    1
     6    12    13    2
     7     2     1   ar
     8     9     8    1
     9     4     5   ar
    10     1     8    1
    11     1     7   ar
    12     8    14    1
    13     5     7   ar
    14     5     6    1
    15    14    15   am
    16    33    32    1
    17    31    28    1
    18    31    26    1
    19    30    28    1
    20    18    19    1
    21    18    17    1
    22    32    24    1
    23    28    29    1
    24    28    27    1
    25    15    16    2
    26    15    17    1
    27    19    24   ar
    28    19    20   ar
    29    24    23   ar
    30    25    20    1
    31    25    26    1
    32    20    21   ar
    33    26    27    1
    34    23    22   ar
    35    21    22   ar
