@<TRIPOS>MOLECULE
L3024_0_out.pdbqt
 33 35 0 0 0
SMALL
GASTEIGER

@<TRIPOS>ATOM
      1 C27         7.3110  -17.3800  -10.5830 C.ar    1  MOL1       -0.0240
      2 C28         7.5560  -17.9870  -11.8290 C.ar    1  MOL1       -0.0570
      3 C29         7.0670  -17.4100  -13.0060 C.ar    1  MOL1       -0.0610
      4 C30         6.3300  -16.2240  -12.9510 C.ar    1  MOL1       -0.0480
      5 C31         6.0810  -15.6080  -11.7200 C.ar    1  MOL1        0.0180
      6 Br32        5.0900  -13.9730  -11.6490 Br      1  MOL1       -0.0510
      7 C33         6.5640  -16.1850  -10.5400 C.ar    1  MOL1       -0.0430
      8  C6         7.7810  -18.0480   -9.3090 C.3     1  MOL1        0.0630
      9  C5         6.6710  -17.9910   -8.2440 C.3     1  MOL1        0.0510
     10  C1         5.5480  -21.6540   -8.9470 C.3     1  MOL1        0.0060
     11  N2         6.2940  -20.4040   -8.9660 N.am    1  MOL1       -0.3590
     12  C3         5.8730  -19.2620   -8.2120 C.2     1  MOL1        0.2220
     13  O4         4.8270  -19.3190   -7.5100 O.2     1  MOL1       -0.2750
     14  N7         9.0030  -17.4020   -8.8180 N.am    1  MOL1       -0.3460
     15  C8        10.0490  -18.1280   -8.1690 C.2     1  MOL1        0.2580
     16  O9         9.9430  -19.3710   -7.9890 O.2     1  MOL1       -0.2710
     17 C10        11.2890  -17.4230   -7.7090 C.3     1  MOL1        0.1670
     18 O11        12.1800  -18.3400   -7.0790 O.3     1  MOL1       -0.4800
     19 C12        13.3450  -18.7910   -7.7060 C.ar    1  MOL1        0.1660
     20 C13        14.2790  -17.8820   -8.2550 C.ar    1  MOL1        0.0120
     21 C21        15.4730  -18.3750   -8.8050 C.ar    1  MOL1       -0.0540
     22 C22        15.7170  -19.7480   -8.8540 C.ar    1  MOL1       -0.0580
     23 C23        14.7720  -20.6460   -8.3570 C.ar    1  MOL1       -0.0160
     24 C24        13.5760  -20.1740   -7.7830 C.ar    1  MOL1        0.1610
     25 C14        14.0250  -16.3910   -8.2680 C.3     1  MOL1        0.0280
     26 N15        14.8320  -15.7210   -7.2270 N.3     1  MOL1       -0.2870
     27 C16        14.5940  -16.3080   -5.8970 C.3     1  MOL1        0.0640
     28 C17        13.9560  -15.0380   -5.3700 C.3     1  MOL1        0.2720
     29 F18        14.6940  -14.4140   -4.3800 F       1  MOL1       -0.2040
     30 F19        12.6110  -15.1740   -5.0660 F       1  MOL1       -0.2040
     31 C20        14.2060  -14.4740   -6.7550 C.3     1  MOL1        0.0640
     32 O25        12.6010  -21.0430   -7.2730 O.3     1  MOL1       -0.4930
     33 C26        12.2020  -22.2600   -7.8950 C.3     1  MOL1        0.0780
@<TRIPOS>BOND
     1     3     4   ar
     2     3     2   ar
     3     4     5   ar
     4     2     1   ar
     5     5     6    1
     6     5     7   ar
     7     1     7   ar
     8     1     8    1
     9     8    14    1
    10     8     9    1
    11    11    10    1
    12    11    12   am
    13    22    21   ar
    14    22    23   ar
    15    14    15   am
    16    21    20   ar
    17    23    24   ar
    18    25    20    1
    19    25    26    1
    20    20    19   ar
    21     9    12    1
    22    12    13    2
    23    15    16    2
    24    15    17    1
    25    33    32    1
    26    24    19   ar
    27    24    32    1
    28    17    18    1
    29    19    18    1
    30    26    31    1
    31    26    27    1
    32    31    28    1
    33    27    28    1
    34    28    30    1
    35    28    29    1
