@<TRIPOS>MOLECULE
L3024_0_out.pdbqt
 33 35 0 0 0
SMALL
GASTEIGER

@<TRIPOS>ATOM
      1 C27         4.5490  -21.4900   -8.7330 C.ar    1  MOL1       -0.0240
      2 C28         4.4240  -21.6370   -7.3390 C.ar    1  MOL1       -0.0570
      3 C29         3.2450  -22.1490   -6.7860 C.ar    1  MOL1       -0.0610
      4 C30         2.1830  -22.5190   -7.6150 C.ar    1  MOL1       -0.0480
      5 C31         2.2970  -22.3810   -9.0030 C.ar    1  MOL1        0.0180
      6 Br32        0.8510  -22.9080  -10.1400 Br      1  MOL1       -0.0510
      7 C33         3.4710  -21.8640   -9.5600 C.ar    1  MOL1       -0.0430
      8  C6         5.7980  -20.8670   -9.3180 C.3     1  MOL1        0.0630
      9  C5         7.0500  -21.4960   -8.6810 C.3     1  MOL1        0.0510
     10  C1         9.7910  -23.7200  -10.3280 C.3     1  MOL1        0.0060
     11  N2         9.1060  -22.7950   -9.4360 N.am    1  MOL1       -0.3590
     12  C3         7.7310  -22.4450   -9.6240 C.2     1  MOL1        0.2220
     13  O4         7.0790  -22.9360  -10.5850 O.2     1  MOL1       -0.2750
     14  N7         5.7870  -19.4150   -9.1110 N.am    1  MOL1       -0.3460
     15  C8         6.8150  -18.7330   -8.3890 C.2     1  MOL1        0.2580
     16  O9         7.7760  -19.3780   -7.8910 O.2     1  MOL1       -0.2710
     17 C10         6.7690  -17.2430   -8.2290 C.3     1  MOL1        0.1670
     18 O11         7.5850  -16.6100   -9.2120 O.3     1  MOL1       -0.4800
     19 C12         7.3940  -16.8190  -10.5800 C.ar    1  MOL1        0.1660
     20 C13         6.4040  -16.1080  -11.2970 C.ar    1  MOL1        0.0120
     21 C21         6.3000  -16.2910  -12.6860 C.ar    1  MOL1       -0.0540
     22 C22         7.1300  -17.1990  -13.3450 C.ar    1  MOL1       -0.0580
     23 C23         8.0720  -17.9360  -12.6280 C.ar    1  MOL1       -0.0160
     24 C24         8.2080  -17.7550  -11.2390 C.ar    1  MOL1        0.1610
     25 C14         5.4510  -15.1560  -10.6090 C.3     1  MOL1        0.0280
     26 N15         4.3110  -14.8390  -11.4930 N.3     1  MOL1       -0.2870
     27 C16         4.4500  -13.5050  -12.1000 C.3     1  MOL1        0.0640
     28 C17         3.2490  -12.9590  -11.3540 C.3     1  MOL1        0.2720
     29 F18         2.1820  -12.6390  -12.1760 F       1  MOL1       -0.2040
     30 F19         3.5650  -11.9710  -10.4350 F       1  MOL1       -0.2040
     31 C20         3.1460  -14.3410  -10.7400 C.3     1  MOL1        0.0640
     32 O25         9.1420  -18.4770  -10.4810 O.3     1  MOL1       -0.4930
     33 C26         9.9230  -19.5570  -10.9810 C.3     1  MOL1        0.0780
@<TRIPOS>BOND
     1    22    21   ar
     2    22    23   ar
     3    21    20   ar
     4    23    24   ar
     5    29    28    1
     6    27    26    1
     7    27    28    1
     8    26    31    1
     9    26    25    1
    10    28    31    1
    11    28    30    1
    12    20    25    1
    13    20    19   ar
    14    24    19   ar
    15    24    32    1
    16    33    32    1
    17    13    12    2
    18    19    18    1
    19    10    11    1
    20     6     5    1
    21    12    11   am
    22    12     9    1
    23     7     5   ar
    24     7     1   ar
    25     8    14    1
    26     8     1    1
    27     8     9    1
    28    18    17    1
    29    14    15   am
    30     5     4   ar
    31     1     2   ar
    32    15    17    1
    33    15    16    2
    34     4     3   ar
    35     2     3   ar
