@<TRIPOS>MOLECULE
L3024_0_out.pdbqt
 33 35 0 0 0
SMALL
GASTEIGER

@<TRIPOS>ATOM
      1 C27         9.5110  -18.1640   -9.1430 C.ar    1  MOL1       -0.0240
      2 C28         9.1230  -17.1460   -8.2530 C.ar    1  MOL1       -0.0570
      3 C29         8.1460  -16.2170   -8.6230 C.ar    1  MOL1       -0.0610
      4 C30         7.5470  -16.2930   -9.8840 C.ar    1  MOL1       -0.0480
      5 C31         7.9210  -17.3030  -10.7780 C.ar    1  MOL1        0.0180
      6 Br32        7.0850  -17.4200  -12.4950 Br      1  MOL1       -0.0510
      7 C33         8.9020  -18.2300  -10.4130 C.ar    1  MOL1       -0.0430
      8  C6        10.6210  -19.1210   -8.7630 C.3     1  MOL1        0.0630
      9  C5        10.0280  -20.3820   -8.1090 C.3     1  MOL1        0.0510
     10  C1         9.6470  -22.9910  -10.9760 C.3     1  MOL1        0.0060
     11  N2         9.4500  -21.8260  -10.1260 N.am    1  MOL1       -0.3590
     12  C3        10.2490  -21.5990   -8.9600 C.2     1  MOL1        0.2220
     13  O4        11.1490  -22.4230   -8.6400 O.2     1  MOL1       -0.2750
     14  N7        11.5690  -18.4650   -7.8560 N.am    1  MOL1       -0.3460
     15  C8        12.9610  -18.7880   -7.8330 C.2     1  MOL1        0.2580
     16  O9        13.4200  -19.6730   -8.6030 O.2     1  MOL1       -0.2710
     17 C10        13.8910  -18.0680   -6.9040 C.3     1  MOL1        0.1670
     18 O11        15.1870  -17.9540   -7.4860 O.3     1  MOL1       -0.4800
     19 C12        16.3420  -17.8420   -6.7070 C.ar    1  MOL1        0.1660
     20 C13        17.0670  -18.9880   -6.3050 C.ar    1  MOL1        0.0120
     21 C21        18.2650  -18.8250   -5.5900 C.ar    1  MOL1       -0.0540
     22 C22        18.7120  -17.5520   -5.2370 C.ar    1  MOL1       -0.0580
     23 C23        17.9690  -16.4250   -5.5910 C.ar    1  MOL1       -0.0160
     24 C24        16.7760  -16.5620   -6.3250 C.ar    1  MOL1        0.1610
     25 C14        16.5860  -20.3860   -6.6230 C.3     1  MOL1        0.0280
     26 N15        17.7270  -21.2560   -6.9770 N.3     1  MOL1       -0.2870
     27 C16        17.9680  -21.2690   -8.4300 C.3     1  MOL1        0.0640
     28 C17        17.5890  -22.7320   -8.5530 C.3     1  MOL1        0.2720
     29 F18        18.6470  -23.5520   -8.9040 F       1  MOL1       -0.2040
     30 F19        16.4400  -22.9500   -9.2950 F       1  MOL1       -0.2040
     31 C20        17.3400  -22.6750   -7.0580 C.3     1  MOL1        0.0640
     32 O25        16.0000  -15.4560   -6.6990 O.3     1  MOL1       -0.4930
     33 C26        16.1660  -14.7280   -7.9120 C.3     1  MOL1        0.0780
@<TRIPOS>BOND
     1     6     5    1
     2    10    11    1
     3     5     7   ar
     4     5     4   ar
     5     7     1   ar
     6    11    12   am
     7     4     3   ar
     8    30    28    1
     9     1     8    1
    10     1     2   ar
    11    12    13    2
    12    12     9    1
    13    29    28    1
    14     8     9    1
    15     8    14    1
    16     3     2   ar
    17    16    15    2
    18    28    27    1
    19    28    31    1
    20    27    26    1
    21    33    32    1
    22    14    15   am
    23    15    17    1
    24    18    17    1
    25    18    19    1
    26    31    26    1
    27    26    25    1
    28    19    24   ar
    29    19    20   ar
    30    32    24    1
    31    25    20    1
    32    24    23   ar
    33    20    21   ar
    34    23    22   ar
    35    21    22   ar
