@<TRIPOS>MOLECULE
L3024_0_out.pdbqt
 33 35 0 0 0
SMALL
GASTEIGER

@<TRIPOS>ATOM
      1 C27        17.5470  -18.5550   -5.3590 C.ar    1  MOL1       -0.0240
      2 C28        18.4350  -17.4650   -5.4140 C.ar    1  MOL1       -0.0570
      3 C29        18.4230  -16.4920   -4.4080 C.ar    1  MOL1       -0.0610
      4 C30        17.5260  -16.5970   -3.3420 C.ar    1  MOL1       -0.0480
      5 C31        16.6400  -17.6780   -3.2740 C.ar    1  MOL1        0.0180
      6 Br32       15.4280  -17.8320   -1.8020 Br      1  MOL1       -0.0510
      7 C33        16.6460  -18.6500   -4.2800 C.ar    1  MOL1       -0.0430
      8  C6        17.5170  -19.5640   -6.4870 C.3     1  MOL1        0.0630
      9  C5        18.9000  -19.6450   -7.1590 C.3     1  MOL1        0.0510
     10  C1        18.7730  -23.5120   -7.6090 C.3     1  MOL1        0.0060
     11  N2        18.3770  -22.1240   -7.4230 N.am    1  MOL1       -0.3590
     12  C3        19.3410  -21.0680   -7.3420 C.2     1  MOL1        0.2220
     13  O4        20.5720  -21.3290   -7.4260 O.2     1  MOL1       -0.2750
     14  N7        16.4870  -19.2010   -7.4660 N.am    1  MOL1       -0.3460
     15  C8        15.2040  -19.8290   -7.5010 C.2     1  MOL1        0.2580
     16  O9        14.9200  -20.7390   -6.6780 O.2     1  MOL1       -0.2710
     17 C10        14.1780  -19.4010   -8.5070 C.3     1  MOL1        0.1670
     18 O11        14.1890  -17.9840   -8.6600 O.3     1  MOL1       -0.4800
     19 C12        13.4480  -17.1420   -7.8260 C.ar    1  MOL1        0.1660
     20 C13        12.0370  -17.2230   -7.7740 C.ar    1  MOL1        0.0120
     21 C21        11.3380  -16.4130   -6.8630 C.ar    1  MOL1       -0.0540
     22 C22        12.0210  -15.5050   -6.0540 C.ar    1  MOL1       -0.0580
     23 C23        13.4080  -15.3910   -6.1430 C.ar    1  MOL1       -0.0160
     24 C24        14.1320  -16.2060   -7.0330 C.ar    1  MOL1        0.1610
     25 C14        11.2590  -18.1570   -8.6730 C.3     1  MOL1        0.0280
     26 N15         9.8240  -18.1350   -8.3220 N.3     1  MOL1       -0.2870
     27 C16         9.1450  -19.3740   -8.7380 C.3     1  MOL1        0.0640
     28 C17         8.2900  -18.6500   -9.7590 C.3     1  MOL1        0.2720
     29 F18         6.9420  -18.6410   -9.4490 F       1  MOL1       -0.2040
     30 F19         8.5630  -19.0080  -11.0690 F       1  MOL1       -0.2040
     31 C20         9.0210  -17.3980   -9.3130 C.3     1  MOL1        0.0640
     32 O25        15.5270  -16.1230   -7.1540 O.3     1  MOL1       -0.4930
     33 C26        16.2200  -15.0290   -7.7450 C.3     1  MOL1        0.0780
@<TRIPOS>BOND
     1    30    28    1
     2    28    29    1
     3    28    31    1
     4    28    27    1
     5    31    26    1
     6    27    26    1
     7    25    26    1
     8    25    20    1
     9    18    17    1
    10    18    19    1
    11    17    15    1
    12    19    20   ar
    13    19    24   ar
    14    20    21   ar
    15    33    32    1
    16    10    11    1
    17    15    14   am
    18    15    16    2
    19    14     8    1
    20    13    12    2
    21    11    12   am
    22    12     9    1
    23     9     8    1
    24    32    24    1
    25    24    23   ar
    26    21    22   ar
    27     8     1    1
    28    23    22   ar
    29     2     1   ar
    30     2     3   ar
    31     1     7   ar
    32     3     4   ar
    33     7     5   ar
    34     4     5   ar
    35     5     6    1
