@<TRIPOS>MOLECULE
L3024_0_out.pdbqt
 33 35 0 0 0
SMALL
GASTEIGER

@<TRIPOS>ATOM
      1 C27         5.4000  -20.6010   -8.5670 C.ar    1  MOL1       -0.0240
      2 C28         4.6030  -19.9570   -7.6030 C.ar    1  MOL1       -0.0570
      3 C29         3.2380  -20.2470   -7.5050 C.ar    1  MOL1       -0.0610
      4 C30         2.6560  -21.1800   -8.3670 C.ar    1  MOL1       -0.0480
      5 C31         3.4380  -21.8300   -9.3290 C.ar    1  MOL1        0.0180
      6 Br32        2.6440  -23.1230  -10.4940 Br      1  MOL1       -0.0510
      7 C33         4.8020  -21.5390   -9.4330 C.ar    1  MOL1       -0.0430
      8  C6         6.8590  -20.2290   -8.7140 C.3     1  MOL1        0.0630
      9  C5         7.0990  -19.5650  -10.0820 C.3     1  MOL1        0.0510
     10  C1         8.4210  -16.2820   -8.4540 C.3     1  MOL1        0.0060
     11  N2         7.8990  -17.6290   -8.6320 N.am    1  MOL1       -0.3590
     12  C3         7.6280  -18.1680   -9.9310 C.2     1  MOL1        0.2220
     13  O4         7.8360  -17.4700  -10.9610 O.2     1  MOL1       -0.2750
     14  N7         7.7050  -21.4180   -8.5620 N.am    1  MOL1       -0.3460
     15  C8         8.3700  -22.0350   -9.6670 C.2     1  MOL1        0.2580
     16  O9         8.2360  -21.5690  -10.8290 O.2     1  MOL1       -0.2710
     17 C10         9.2440  -23.2340   -9.4520 C.3     1  MOL1        0.1670
     18 O11        10.6190  -22.8580   -9.4690 O.3     1  MOL1       -0.4800
     19 C12        11.5220  -23.3060   -8.5020 C.ar    1  MOL1        0.1660
     20 C13        11.9080  -22.4780   -7.4230 C.ar    1  MOL1        0.0120
     21 C21        12.7570  -22.9960   -6.4300 C.ar    1  MOL1       -0.0540
     22 C22        13.2530  -24.2960   -6.5310 C.ar    1  MOL1       -0.0580
     23 C23        12.9110  -25.0940   -7.6230 C.ar    1  MOL1       -0.0160
     24 C24        12.0460  -24.6040   -8.6190 C.ar    1  MOL1        0.1610
     25 C14        11.4330  -21.0460   -7.3080 C.3     1  MOL1        0.0280
     26 N15        12.0630  -20.2090   -8.3490 N.3     1  MOL1       -0.2870
     27 C16        12.8280  -19.0960   -7.7600 C.3     1  MOL1        0.0640
     28 C17        11.8920  -18.0520   -8.3350 C.3     1  MOL1        0.2720
     29 F18        12.4790  -17.2480   -9.2970 F       1  MOL1       -0.2040
     30 F19        11.1820  -17.3500   -7.3750 F       1  MOL1       -0.2040
     31 C20        11.1240  -19.2250   -8.9140 C.3     1  MOL1        0.0640
     32 O25        11.6790  -25.3730   -9.7320 O.3     1  MOL1       -0.4930
     33 C26        12.5170  -25.6120  -10.8580 C.3     1  MOL1        0.0780
@<TRIPOS>BOND
     1    13    12    2
     2    33    32    1
     3    16    15    2
     4     6     5    1
     5     9    12    1
     6     9     8    1
     7    12    11   am
     8    32    24    1
     9    15    17    1
    10    15    14   am
    11    18    17    1
    12    18    19    1
    13     7     5   ar
    14     7     1   ar
    15     5     4   ar
    16    29    28    1
    17    31    26    1
    18    31    28    1
    19     8     1    1
    20     8    14    1
    21    11    10    1
    22    24    19   ar
    23    24    23   ar
    24     1     2   ar
    25    19    20   ar
    26     4     3   ar
    27    26    27    1
    28    26    25    1
    29    28    27    1
    30    28    30    1
    31    23    22   ar
    32     2     3   ar
    33    20    25    1
    34    20    21   ar
    35    22    21   ar
