@<TRIPOS>MOLECULE
L3024_0_out.pdbqt
 33 35 0 0 0
SMALL
GASTEIGER

@<TRIPOS>ATOM
      1 C27         5.8380  -20.9900   -8.6660 C.ar    1  MOL1       -0.0240
      2 C28         5.5830  -20.9490   -7.2830 C.ar    1  MOL1       -0.0570
      3 C29         4.3580  -21.3950   -6.7760 C.ar    1  MOL1       -0.0610
      4 C30         3.3770  -21.8860   -7.6420 C.ar    1  MOL1       -0.0480
      5 C31         3.6190  -21.9360   -9.0190 C.ar    1  MOL1        0.0180
      6 Br32        2.2850  -22.6290  -10.2020 Br      1  MOL1       -0.0510
      7 C33         4.8410  -21.4850   -9.5310 C.ar    1  MOL1       -0.0430
      8  C6         7.1360  -20.4380   -9.2140 C.3     1  MOL1        0.0630
      9  C5         7.4630  -21.1010  -10.5640 C.3     1  MOL1        0.0510
     10  C1         9.2230  -24.4380   -9.5930 C.3     1  MOL1        0.0060
     11  N2         8.2250  -23.3880   -9.7430 N.am    1  MOL1       -0.3590
     12  C3         8.5180  -22.1600  -10.4160 C.2     1  MOL1        0.2220
     13  O4         9.6670  -21.9590  -10.8950 O.2     1  MOL1       -0.2750
     14  N7         8.2250  -20.6550   -8.2550 N.am    1  MOL1       -0.3460
     15  C8         9.2360  -19.6760   -8.0050 C.2     1  MOL1        0.2580
     16  O9         9.2240  -18.5790   -8.6230 O.2     1  MOL1       -0.2710
     17 C10        10.3120  -19.9380   -6.9940 C.3     1  MOL1        0.1670
     18 O11        11.5870  -20.0060   -7.6290 O.3     1  MOL1       -0.4800
     19 C12        12.7780  -19.8210   -6.9220 C.ar    1  MOL1        0.1660
     20 C13        13.3670  -20.8790   -6.1920 C.ar    1  MOL1        0.0120
     21 C21        14.6050  -20.6710   -5.5620 C.ar    1  MOL1       -0.0540
     22 C22        15.2240  -19.4220   -5.6140 C.ar    1  MOL1       -0.0580
     23 C23        14.6170  -18.3650   -6.2920 C.ar    1  MOL1       -0.0160
     24 C24        13.3870  -18.5560   -6.9490 C.ar    1  MOL1        0.1610
     25 C14        12.6990  -22.2310   -6.0690 C.3     1  MOL1        0.0280
     26 N15        13.3910  -23.2270   -6.9120 N.3     1  MOL1       -0.2870
     27 C16        12.5350  -23.6880   -8.0190 C.3     1  MOL1        0.0640
     28 C17        12.4560  -25.0980   -7.4660 C.3     1  MOL1        0.2720
     29 F18        13.0840  -26.0420   -8.2600 F       1  MOL1       -0.2040
     30 F19        11.1850  -25.4660   -7.0560 F       1  MOL1       -0.2040
     31 C20        13.3270  -24.5820   -6.3380 C.3     1  MOL1        0.0640
     32 O25        12.7430  -17.5200   -7.6410 O.3     1  MOL1       -0.4930
     33 C26        12.1420  -16.3880   -7.0200 C.3     1  MOL1        0.0780
@<TRIPOS>BOND
     1    13    12    2
     2     9    12    1
     3     9     8    1
     4    12    11   am
     5     6     5    1
     6    11    10    1
     7     7     5   ar
     8     7     1   ar
     9     8     1    1
    10     8    14    1
    11     5     4   ar
    12     1     2   ar
    13    16    15    2
    14    29    28    1
    15    14    15   am
    16    27    28    1
    17    27    26    1
    18    15    17    1
    19     4     3   ar
    20    32    33    1
    21    32    24    1
    22    18    17    1
    23    18    19    1
    24    28    30    1
    25    28    31    1
    26     2     3   ar
    27    24    19   ar
    28    24    23   ar
    29    19    20   ar
    30    26    31    1
    31    26    25    1
    32    23    22   ar
    33    20    25    1
    34    20    21   ar
    35    22    21   ar
