@<TRIPOS>MOLECULE
L3024_0_out.pdbqt
 33 35 0 0 0
SMALL
GASTEIGER

@<TRIPOS>ATOM
      1 C27        16.5050  -14.6250    0.0880 C.ar    1  MOL1       -0.0240
      2 C28        15.9400  -14.4310    1.3610 C.ar    1  MOL1       -0.0570
      3 C29        16.7480  -14.0740    2.4470 C.ar    1  MOL1       -0.0610
      4 C30        18.1240  -13.9080    2.2720 C.ar    1  MOL1       -0.0480
      5 C31        18.6990  -14.0940    1.0100 C.ar    1  MOL1        0.0180
      6 Br32       20.5800  -13.8440    0.7670 Br      1  MOL1       -0.0510
      7 C33        17.8950  -14.4560   -0.0770 C.ar    1  MOL1       -0.0430
      8  C6        15.6370  -15.0810   -1.0650 C.3     1  MOL1        0.0630
      9  C5        14.6510  -16.1620   -0.5860 C.3     1  MOL1        0.0510
     10  C1        15.4900  -19.7540   -1.8360 C.3     1  MOL1        0.0060
     11  N2        14.9120  -18.4230   -1.7290 N.am    1  MOL1       -0.3590
     12  C3        15.2570  -17.5330   -0.6620 C.2     1  MOL1        0.2220
     13  O4        16.0790  -17.8960    0.2230 O.2     1  MOL1       -0.2750
     14  N7        16.4700  -15.5910   -2.1590 N.am    1  MOL1       -0.3460
     15  C8        16.3030  -15.1700   -3.5140 C.2     1  MOL1        0.2580
     16  O9        15.4060  -14.3380   -3.8140 O.2     1  MOL1       -0.2710
     17 C10        17.2000  -15.7040   -4.5900 C.3     1  MOL1        0.1670
     18 O11        16.5020  -16.6470   -5.4000 O.3     1  MOL1       -0.4800
     19 C12        16.9050  -16.9470   -6.7030 C.ar    1  MOL1        0.1660
     20 C13        16.7090  -16.0280   -7.7600 C.ar    1  MOL1        0.0120
     21 C21        17.2010  -16.3380   -9.0380 C.ar    1  MOL1       -0.0540
     22 C22        17.8340  -17.5580   -9.2770 C.ar    1  MOL1       -0.0580
     23 C23        17.9820  -18.4850   -8.2450 C.ar    1  MOL1       -0.0160
     24 C24        17.5150  -18.1880   -6.9510 C.ar    1  MOL1        0.1610
     25 C14        15.9810  -14.7190   -7.5510 C.3     1  MOL1        0.0280
     26 N15        14.5580  -14.8550   -7.9250 N.3     1  MOL1       -0.2870
     27 C16        13.6870  -14.8910   -6.7390 C.3     1  MOL1        0.0640
     28 C17        13.2710  -16.3260   -6.9980 C.3     1  MOL1        0.2720
     29 F18        11.9340  -16.4650   -7.3290 F       1  MOL1       -0.2040
     30 F19        13.7050  -17.2160   -6.0290 F       1  MOL1       -0.2040
     31 C20        14.1880  -16.2530   -8.2030 C.3     1  MOL1        0.0640
     32 O25        17.6430  -19.0920   -5.8860 O.3     1  MOL1       -0.4930
     33 C26        16.7050  -20.1200   -5.5850 C.3     1  MOL1        0.0780
@<TRIPOS>BOND
     1    22    21   ar
     2    22    23   ar
     3    21    20   ar
     4    23    24   ar
     5    31    26    1
     6    31    28    1
     7    26    25    1
     8    26    27    1
     9    20    25    1
    10    20    19   ar
    11    29    28    1
    12    28    27    1
    13    28    30    1
    14    24    19   ar
    15    24    32    1
    16    19    18    1
    17    32    33    1
    18    18    17    1
    19    17    15    1
    20    16    15    2
    21    15    14   am
    22    14     8    1
    23    10    11    1
    24    11    12   am
    25     8     9    1
    26     8     1    1
    27    12     9    1
    28    12    13    2
    29     7     1   ar
    30     7     5   ar
    31     1     2   ar
    32     6     5    1
    33     5     4   ar
    34     2     3   ar
    35     4     3   ar
