@<TRIPOS>MOLECULE
L3024_0_out.pdbqt
 33 35 0 0 0
SMALL
GASTEIGER

@<TRIPOS>ATOM
      1 C27         1.2280  -21.9760   -9.1330 C.ar    1  MOL1       -0.0240
      2 C28         2.2140  -22.9030   -9.5180 C.ar    1  MOL1       -0.0570
      3 C29         2.0290  -23.7030  -10.6510 C.ar    1  MOL1       -0.0610
      4 C30         0.8610  -23.5860  -11.4090 C.ar    1  MOL1       -0.0480
      5 C31        -0.1260  -22.6650  -11.0390 C.ar    1  MOL1        0.0180
      6 Br32       -1.7160  -22.4900  -12.0890 Br      1  MOL1       -0.0510
      7 C33         0.0530  -21.8680   -9.9040 C.ar    1  MOL1       -0.0430
      8  C6         1.4040  -21.1670   -7.8660 C.3     1  MOL1        0.0630
      9  C5         0.3350  -20.0610   -7.7940 C.3     1  MOL1        0.0510
     10  C1        -3.4930  -20.3240   -7.1260 C.3     1  MOL1        0.0060
     11  N2        -2.1830  -19.8150   -7.5060 N.am    1  MOL1       -0.3590
     12  C3        -1.0000  -20.6110   -7.3830 C.2     1  MOL1        0.2220
     13  O4        -1.0720  -21.7860   -6.9290 O.2     1  MOL1       -0.2750
     14  N7         2.7500  -20.5880   -7.8150 N.am    1  MOL1       -0.3460
     15  C8         3.8320  -21.2170   -7.1250 C.2     1  MOL1        0.2580
     16  O9         3.6520  -22.3070   -6.5200 O.2     1  MOL1       -0.2710
     17 C10         5.1970  -20.5950   -7.1270 C.3     1  MOL1        0.1670
     18 O11         5.3130  -19.6500   -8.1880 O.3     1  MOL1       -0.4800
     19 C12         6.3340  -18.6960   -8.2220 C.ar    1  MOL1        0.1660
     20 C13         7.6440  -19.0420   -8.6250 C.ar    1  MOL1        0.0120
     21 C21         8.6190  -18.0350   -8.7220 C.ar    1  MOL1       -0.0540
     22 C22         8.3140  -16.7190   -8.3780 C.ar    1  MOL1       -0.0580
     23 C23         7.0340  -16.3890   -7.9320 C.ar    1  MOL1       -0.0160
     24 C24         6.0350  -17.3760   -7.8470 C.ar    1  MOL1        0.1610
     25 C14         8.0260  -20.4680   -8.9550 C.3     1  MOL1        0.0280
     26 N15         8.0750  -20.6640  -10.4180 N.3     1  MOL1       -0.2870
     27 C16         6.7330  -20.9010  -10.9780 C.3     1  MOL1        0.0640
     28 C17         7.0720  -22.3220  -11.3810 C.3     1  MOL1        0.2720
     29 F18         7.1000  -22.5210  -12.7500 F       1  MOL1       -0.2040
     30 F19         6.3530  -23.2840  -10.6890 F       1  MOL1       -0.2040
     31 C20         8.4370  -22.0450  -10.7820 C.3     1  MOL1        0.0640
     32 O25         4.7370  -17.0860   -7.4030 O.3     1  MOL1       -0.4930
     33 C26         4.3950  -15.9730   -6.5830 C.3     1  MOL1        0.0780
@<TRIPOS>BOND
     1    29    28    1
     2     6     5    1
     3     4     5   ar
     4     4     3   ar
     5    28    27    1
     6    28    31    1
     7    28    30    1
     8     5     7   ar
     9    27    26    1
    10    31    26    1
    11     3     2   ar
    12    26    25    1
    13     7     1   ar
    14     2     1   ar
    15     1     8    1
    16    25    20    1
    17    21    20   ar
    18    21    22   ar
    19    20    19   ar
    20    22    23   ar
    21    19    18    1
    22    19    24   ar
    23    18    17    1
    24    23    24   ar
    25     8    14    1
    26     8     9    1
    27    24    32    1
    28    14    15   am
    29     9    12    1
    30    11    12   am
    31    11    10    1
    32    32    33    1
    33    12    13    2
    34    17    15    1
    35    15    16    2
