@<TRIPOS>MOLECULE
L3024_0_out.pdbqt
 33 35 0 0 0
SMALL
GASTEIGER

@<TRIPOS>ATOM
      1 C27         6.9630  -19.4400   -9.1320 C.ar    1  MOL1       -0.0240
      2 C28         7.2820  -20.0970  -10.3340 C.ar    1  MOL1       -0.0570
      3 C29         6.5570  -21.2230  -10.7390 C.ar    1  MOL1       -0.0610
      4 C30         5.5080  -21.7030   -9.9500 C.ar    1  MOL1       -0.0480
      5 C31         5.1780  -21.0560   -8.7540 C.ar    1  MOL1        0.0180
      6 Br32        3.7280  -21.7010   -7.6850 Br      1  MOL1       -0.0510
      7 C33         5.9040  -19.9340   -8.3430 C.ar    1  MOL1       -0.0430
      8  C6         7.7980  -18.2670   -8.6650 C.3     1  MOL1        0.0630
      9  C5         7.0920  -16.9450   -9.0150 C.3     1  MOL1        0.0510
     10  C1         4.4270  -15.9420   -6.3570 C.3     1  MOL1        0.0060
     11  N2         5.0680  -16.5240   -7.5270 N.am    1  MOL1       -0.3590
     12  C3         6.4580  -16.3220   -7.8050 C.2     1  MOL1        0.2220
     13  O4         7.1620  -15.6210   -7.0290 O.2     1  MOL1       -0.2750
     14  N7         9.1310  -18.3180   -9.2760 N.am    1  MOL1       -0.3460
     15  C8        10.2820  -17.7380   -8.6580 C.2     1  MOL1        0.2580
     16  O9        10.1780  -17.1450   -7.5510 O.2     1  MOL1       -0.2710
     17 C10        11.6270  -17.8410   -9.3130 C.3     1  MOL1        0.1670
     18 O11        12.0470  -19.2020   -9.3770 O.3     1  MOL1       -0.4800
     19 C12        12.5600  -19.8730   -8.2640 C.ar    1  MOL1        0.1660
     20 C13        13.8600  -19.5990   -7.7810 C.ar    1  MOL1        0.0120
     21 C21        14.3060  -20.2390   -6.6120 C.ar    1  MOL1       -0.0540
     22 C22        13.4970  -21.1700   -5.9620 C.ar    1  MOL1       -0.0580
     23 C23        12.2340  -21.4770   -6.4700 C.ar    1  MOL1       -0.0160
     24 C24        11.7580  -20.8330   -7.6270 C.ar    1  MOL1        0.1610
     25 C14        14.7870  -18.6350   -8.4890 C.3     1  MOL1        0.0280
     26 N15        15.3950  -17.6990   -7.5210 N.3     1  MOL1       -0.2870
     27 C16        14.3970  -16.7670   -6.9690 C.3     1  MOL1        0.0640
     28 C17        15.0480  -15.5660   -7.6270 C.3     1  MOL1        0.2720
     29 F18        15.6020  -14.6720   -6.7270 F       1  MOL1       -0.2040
     30 F19        14.2620  -14.9690   -8.5990 F       1  MOL1       -0.2040
     31 C20        16.0480  -16.5590   -8.1870 C.3     1  MOL1        0.0640
     32 O25        10.4950  -21.1130   -8.1700 O.3     1  MOL1       -0.4930
     33 C26        10.2540  -22.0650   -9.2010 C.3     1  MOL1        0.0780
@<TRIPOS>BOND
     1     3     2   ar
     2     3     4   ar
     3     2     1   ar
     4     4     5   ar
     5    18    17    1
     6    18    19    1
     7    17    15    1
     8    14     8    1
     9    14    15   am
    10    33    32    1
    11     1     8    1
    12     1     7   ar
    13     9     8    1
    14     9    12    1
    15     5     7   ar
    16     5     6    1
    17    15    16    2
    18    30    28    1
    19    25    20    1
    20    25    26    1
    21    19    20   ar
    22    19    24   ar
    23    31    28    1
    24    31    26    1
    25    32    24    1
    26    12    11   am
    27    12    13    2
    28    20    21   ar
    29    28    27    1
    30    28    29    1
    31    24    23   ar
    32    11    10    1
    33    26    27    1
    34    21    22   ar
    35    23    22   ar
