@<TRIPOS>MOLECULE
L3024_0_out.pdbqt
 33 35 0 0 0
SMALL
GASTEIGER

@<TRIPOS>ATOM
      1 C27         5.2630  -15.2780  -10.1110 C.ar    1  MOL1       -0.0240
      2 C28         4.0440  -14.9320   -9.5010 C.ar    1  MOL1       -0.0570
      3 C29         3.1570  -14.0570  -10.1380 C.ar    1  MOL1       -0.0610
      4 C30         3.4780  -13.5200  -11.3870 C.ar    1  MOL1       -0.0480
      5 C31         4.6870  -13.8580  -12.0070 C.ar    1  MOL1        0.0180
      6 Br32        5.1150  -13.1390  -13.7270 Br      1  MOL1       -0.0510
      7 C33         5.5780  -14.7280  -11.3710 C.ar    1  MOL1       -0.0430
      8  C6         6.2490  -16.1670   -9.3840 C.3     1  MOL1        0.0630
      9  C5         7.4400  -16.4960  -10.3020 C.3     1  MOL1        0.0510
     10  C1        10.4630  -18.7530   -9.3340 C.3     1  MOL1        0.0060
     11  N2         9.3390  -18.1750  -10.0560 N.am    1  MOL1       -0.3590
     12  C3         8.5870  -17.0770   -9.5280 C.2     1  MOL1        0.2220
     13  O4         8.8880  -16.5870   -8.4050 O.2     1  MOL1       -0.2750
     14  N7         5.5880  -17.3970   -8.9340 N.am    1  MOL1       -0.3460
     15  C8         5.1330  -17.5790   -7.5920 C.2     1  MOL1        0.2580
     16  O9         5.3000  -16.6700   -6.7350 O.2     1  MOL1       -0.2710
     17 C10         4.4390  -18.8460   -7.1910 C.3     1  MOL1        0.1670
     18 O11         5.1450  -19.9800   -7.6900 O.3     1  MOL1       -0.4800
     19 C12         4.6010  -20.8250   -8.6610 C.ar    1  MOL1        0.1660
     20 C13         5.4120  -21.4080   -9.6610 C.ar    1  MOL1        0.0120
     21 C21         4.8370  -22.3130  -10.5680 C.ar    1  MOL1       -0.0540
     22 C22         3.4730  -22.5970  -10.5160 C.ar    1  MOL1       -0.0580
     23 C23         2.6640  -21.9820   -9.5610 C.ar    1  MOL1       -0.0160
     24 C24         3.2210  -21.0870   -8.6280 C.ar    1  MOL1        0.1610
     25 C14         6.8850  -21.0830   -9.7810 C.3     1  MOL1        0.0280
     26 N15         7.6050  -22.1900  -10.4430 N.3     1  MOL1       -0.2870
     27 C16         8.2440  -23.0840   -9.4630 C.3     1  MOL1        0.0640
     28 C17         9.6400  -22.7030   -9.9170 C.3     1  MOL1        0.2720
     29 F18        10.3300  -23.7400  -10.5200 F       1  MOL1       -0.2040
     30 F19        10.3730  -22.0240   -8.9570 F       1  MOL1       -0.2040
     31 C20         8.9440  -21.7860  -10.9030 C.3     1  MOL1        0.0640
     32 O25         2.4440  -20.4470   -7.6520 O.3     1  MOL1       -0.4930
     33 C26         1.0210  -20.4760   -7.6090 C.3     1  MOL1        0.0780
@<TRIPOS>BOND
     1     6     5    1
     2     5     4   ar
     3     5     7   ar
     4     4     3   ar
     5     7     1   ar
     6    31    26    1
     7    31    28    1
     8    21    22   ar
     9    21    20   ar
    10    29    28    1
    11    22    23   ar
    12    26    25    1
    13    26    27    1
    14     9    12    1
    15     9     8    1
    16     3     2   ar
    17     1     2   ar
    18     1     8    1
    19    11    12   am
    20    11    10    1
    21    28    27    1
    22    28    30    1
    23    25    20    1
    24    20    19   ar
    25    23    24   ar
    26    12    13    2
    27     8    14    1
    28    14    15   am
    29    19    24   ar
    30    19    18    1
    31    24    32    1
    32    18    17    1
    33    32    33    1
    34    15    17    1
    35    15    16    2
