@<TRIPOS>MOLECULE
L3024_0_out.pdbqt
 33 35 0 0 0
SMALL
GASTEIGER

@<TRIPOS>ATOM
      1 C27        10.6080  -18.6960   -8.0210 C.ar    1  MOL1       -0.0240
      2 C28        10.2190  -17.3740   -8.3000 C.ar    1  MOL1       -0.0570
      3 C29         8.8850  -17.0770   -8.5990 C.ar    1  MOL1       -0.0610
      4 C30         7.9280  -18.0950   -8.6220 C.ar    1  MOL1       -0.0480
      5 C31         8.3010  -19.4140   -8.3430 C.ar    1  MOL1        0.0180
      6 Br32        6.9860  -20.8040   -8.3530 Br      1  MOL1       -0.0510
      7 C33         9.6350  -19.7160   -8.0490 C.ar    1  MOL1       -0.0430
      8  C6        12.0650  -19.0200   -7.7700 C.3     1  MOL1        0.0630
      9  C5        12.1820  -20.2710   -6.8800 C.3     1  MOL1        0.0510
     10  C1        12.9950  -23.7850   -8.3500 C.3     1  MOL1        0.0060
     11  N2        12.3240  -22.6890   -7.6660 N.am    1  MOL1       -0.3590
     12  C3        12.9030  -21.3830   -7.5840 C.2     1  MOL1        0.2220
     13  O4        14.0280  -21.1560   -8.1090 O.2     1  MOL1       -0.2750
     14  N7        12.7400  -17.8770   -7.1450 N.am    1  MOL1       -0.3460
     15  C8        13.9580  -17.3310   -7.6550 C.2     1  MOL1        0.2580
     16  O9        14.5030  -17.8340   -8.6730 O.2     1  MOL1       -0.2710
     17 C10        14.5920  -16.1440   -6.9940 C.3     1  MOL1        0.1670
     18 O11        15.7640  -16.5370   -6.2830 O.3     1  MOL1       -0.4800
     19 C12        15.7010  -17.1530   -5.0310 C.ar    1  MOL1        0.1660
     20 C13        15.9790  -18.5310   -4.8790 C.ar    1  MOL1        0.0120
     21 C21        15.9800  -19.0910   -3.5900 C.ar    1  MOL1       -0.0540
     22 C22        15.6650  -18.3110   -2.4780 C.ar    1  MOL1       -0.0580
     23 C23        15.3420  -16.9630   -2.6360 C.ar    1  MOL1       -0.0160
     24 C24        15.3530  -16.3750   -3.9140 C.ar    1  MOL1        0.1610
     25 C14        16.2730  -19.4200   -6.0660 C.3     1  MOL1        0.0280
     26 N15        17.4490  -18.9190   -6.8070 N.3     1  MOL1       -0.2870
     27 C16        17.8180  -19.8200   -7.9110 C.3     1  MOL1        0.0640
     28 C17        19.1370  -20.1930   -7.2630 C.3     1  MOL1        0.2720
     29 F18        20.2450  -19.7450   -7.9610 F       1  MOL1       -0.2040
     30 F19        19.2140  -21.5220   -6.8800 F       1  MOL1       -0.2040
     31 C20        18.7150  -19.2660   -6.1400 C.3     1  MOL1        0.0640
     32 O25        15.0330  -15.0240   -4.1160 O.3     1  MOL1       -0.4930
     33 C26        13.7440  -14.4610   -3.9010 C.3     1  MOL1        0.0780
@<TRIPOS>BOND
     1    16    15    2
     2     4     3   ar
     3     4     5   ar
     4     3     2   ar
     5     6     5    1
     6    10    11    1
     7     5     7   ar
     8     2     1   ar
     9    13    12    2
    10     7     1   ar
    11     1     8    1
    12    29    28    1
    13    27    28    1
    14    27    26    1
    15     8    14    1
    16     8     9    1
    17    11    12   am
    18    15    14   am
    19    15    17    1
    20    12     9    1
    21    28    30    1
    22    28    31    1
    23    17    18    1
    24    26    31    1
    25    26    25    1
    26    18    19    1
    27    25    20    1
    28    19    20   ar
    29    19    24   ar
    30    20    21   ar
    31    32    24    1
    32    32    33    1
    33    24    23   ar
    34    21    22   ar
    35    23    22   ar
