@<TRIPOS>MOLECULE
L3024_0_out.pdbqt
 33 35 0 0 0
SMALL
GASTEIGER

@<TRIPOS>ATOM
      1 C27         6.9040  -20.3130   -8.8910 C.ar    1  MOL1       -0.0240
      2 C28         5.9190  -21.2260   -8.4710 C.ar    1  MOL1       -0.0570
      3 C29         4.8030  -20.7820   -7.7540 C.ar    1  MOL1       -0.0610
      4 C30         4.6590  -19.4260   -7.4490 C.ar    1  MOL1       -0.0480
      5 C31         5.6290  -18.5070   -7.8640 C.ar    1  MOL1        0.0180
      6 Br32        5.4200  -16.6470   -7.4650 Br      1  MOL1       -0.0510
      7 C33         6.7490  -18.9470   -8.5760 C.ar    1  MOL1       -0.0430
      8  C6         8.1430  -20.8100   -9.6030 C.3     1  MOL1        0.0630
      9  C5         8.3970  -22.2870   -9.2500 C.3     1  MOL1        0.0510
     10  C1        10.8440  -24.6930  -11.0940 C.3     1  MOL1        0.0060
     11  N2        10.1250  -23.9790  -10.0480 N.am    1  MOL1       -0.3590
     12  C3         9.1280  -22.9980  -10.3520 C.2     1  MOL1        0.2220
     13  O4         8.8530  -22.7270  -11.5530 O.2     1  MOL1       -0.2750
     14  N7         9.3020  -19.9870   -9.2410 N.am    1  MOL1       -0.3460
     15  C8        10.1960  -19.4460  -10.2160 C.2     1  MOL1        0.2580
     16  O9        10.0140  -19.6750  -11.4410 O.2     1  MOL1       -0.2710
     17 C10        11.3500  -18.5880   -9.7930 C.3     1  MOL1        0.1670
     18 O11        11.4880  -18.6010   -8.3740 O.3     1  MOL1       -0.4800
     19 C12        12.2130  -17.6210   -7.6900 C.ar    1  MOL1        0.1660
     20 C13        13.6270  -17.6270   -7.6870 C.ar    1  MOL1        0.0120
     21 C21        14.3150  -16.5780   -7.0540 C.ar    1  MOL1       -0.0540
     22 C22        13.6140  -15.5680   -6.3940 C.ar    1  MOL1       -0.0580
     23 C23        12.2200  -15.5920   -6.3550 C.ar    1  MOL1       -0.0160
     24 C24        11.5090  -16.6220   -7.0000 C.ar    1  MOL1        0.1610
     25 C14        14.4210  -18.7330   -8.3460 C.3     1  MOL1        0.0280
     26 N15        14.6610  -19.8340   -7.3920 N.3     1  MOL1       -0.2870
     27 C16        16.0180  -20.3890   -7.5350 C.3     1  MOL1        0.0640
     28 C17        15.4990  -21.7270   -8.0230 C.3     1  MOL1        0.2720
     29 F18        15.7380  -22.7690   -7.1440 F       1  MOL1       -0.2040
     30 F19        15.8370  -22.0110   -9.3360 F       1  MOL1       -0.2040
     31 C20        14.1190  -21.1160   -7.8750 C.3     1  MOL1        0.0640
     32 O25        10.1080  -16.6830   -6.9840 O.3     1  MOL1       -0.4930
     33 C26         9.2740  -16.3560   -8.0910 C.3     1  MOL1        0.0780
@<TRIPOS>BOND
     1    13    12    2
     2    16    15    2
     3    10    11    1
     4    12    11   am
     5    12     9    1
     6    15    17    1
     7    15    14   am
     8    17    18    1
     9     8     9    1
    10     8    14    1
    11     8     1    1
    12    30    28    1
    13     1     7   ar
    14     1     2   ar
    15     7     5   ar
    16     2     3   ar
    17    18    19    1
    18    25    20    1
    19    25    26    1
    20    33    32    1
    21    28    31    1
    22    28    27    1
    23    28    29    1
    24    31    26    1
    25     5     6    1
    26     5     4   ar
    27     3     4   ar
    28    19    20   ar
    29    19    24   ar
    30    20    21   ar
    31    27    26    1
    32    21    22   ar
    33    24    32    1
    34    24    23   ar
    35    22    23   ar
