@<TRIPOS>MOLECULE
L3024_0_out.pdbqt
 33 35 0 0 0
SMALL
GASTEIGER

@<TRIPOS>ATOM
      1 C27         7.7930  -19.8360   -9.7670 C.ar    1  MOL1       -0.0240
      2 C28         6.4440  -20.2300   -9.8240 C.ar    1  MOL1       -0.0570
      3 C29         6.1070  -21.5620  -10.0920 C.ar    1  MOL1       -0.0610
      4 C30         7.1120  -22.5100  -10.3040 C.ar    1  MOL1       -0.0480
      5 C31         8.4580  -22.1320  -10.2460 C.ar    1  MOL1        0.0180
      6 Br32        9.8320  -23.4350  -10.5150 Br      1  MOL1       -0.0510
      7 C33         8.7980  -20.8010   -9.9850 C.ar    1  MOL1       -0.0430
      8  C6         8.1480  -18.3810   -9.5490 C.3     1  MOL1        0.0630
      9  C5         7.8810  -17.5750  -10.8340 C.3     1  MOL1        0.0510
     10  C1         5.2250  -14.8250  -11.5780 C.3     1  MOL1        0.0060
     11  N2         6.2920  -15.8020  -11.7390 N.am    1  MOL1       -0.3590
     12  C3         6.7870  -16.5670  -10.6340 C.2     1  MOL1        0.2220
     13  O4         6.3030  -16.3990   -9.4810 O.2     1  MOL1       -0.2750
     14  N7         9.5520  -18.2550   -9.1430 N.am    1  MOL1       -0.3460
     15  C8        10.0030  -17.2460   -8.2380 C.2     1  MOL1        0.2580
     16  O9         9.1890  -16.4110   -7.7600 O.2     1  MOL1       -0.2710
     17 C10        11.4460  -17.1780   -7.8350 C.3     1  MOL1        0.1670
     18 O11        11.9610  -18.4870   -7.6050 O.3     1  MOL1       -0.4800
     19 C12        13.2410  -18.8630   -8.0210 C.ar    1  MOL1        0.1660
     20 C13        14.2330  -17.8960   -8.3030 C.ar    1  MOL1        0.0120
     21 C21        15.5280  -18.3200   -8.6420 C.ar    1  MOL1       -0.0540
     22 C22        15.8230  -19.6800   -8.7460 C.ar    1  MOL1       -0.0580
     23 C23        14.8300  -20.6320   -8.5160 C.ar    1  MOL1       -0.0160
     24 C24        13.5300  -20.2310   -8.1560 C.ar    1  MOL1        0.1610
     25 C14        13.9360  -16.4130   -8.2530 C.3     1  MOL1        0.0280
     26 N15        14.7260  -15.7650   -7.1850 N.3     1  MOL1       -0.2870
     27 C16        14.3830  -16.3010   -5.8570 C.3     1  MOL1        0.0640
     28 C17        13.7960  -14.9820   -5.3950 C.3     1  MOL1        0.2720
     29 F18        14.5180  -14.3770   -4.3810 F       1  MOL1       -0.2040
     30 F19        12.4320  -15.0300   -5.1620 F       1  MOL1       -0.2040
     31 C20        14.1520  -14.4710   -6.7780 C.3     1  MOL1        0.0640
     32 O25        12.5040  -21.1570   -7.9180 O.3     1  MOL1       -0.4930
     33 C26        12.3870  -21.9430   -6.7370 C.3     1  MOL1        0.0780
@<TRIPOS>BOND
     1    11    10    1
     2    11    12   am
     3     9    12    1
     4     9     8    1
     5    12    13    2
     6     6     5    1
     7     4     5   ar
     8     4     3   ar
     9     5     7   ar
    10     3     2   ar
    11     7     1   ar
    12     2     1   ar
    13     1     8    1
    14     8    14    1
    15    14    15   am
    16    22    21   ar
    17    22    23   ar
    18    21    20   ar
    19    23    24   ar
    20    20    25    1
    21    20    19   ar
    22    25    26    1
    23    15    17    1
    24    15    16    2
    25    24    19   ar
    26    24    32    1
    27    19    18    1
    28    32    33    1
    29    17    18    1
    30    26    31    1
    31    26    27    1
    32    31    28    1
    33    27    28    1
    34    28    30    1
    35    28    29    1
