@<TRIPOS>MOLECULE
L3024_0_out.pdbqt
 33 35 0 0 0
SMALL
GASTEIGER

@<TRIPOS>ATOM
      1 C27        10.5740  -17.9700   -7.7960 C.ar    1  MOL1       -0.0240
      2 C28        10.2280  -19.3000   -7.4970 C.ar    1  MOL1       -0.0570
      3 C29         9.0360  -19.8480   -7.9830 C.ar    1  MOL1       -0.0610
      4 C30         8.1790  -19.0750   -8.7710 C.ar    1  MOL1       -0.0480
      5 C31         8.5130  -17.7510   -9.0780 C.ar    1  MOL1        0.0180
      6 Br32        7.3500  -16.7000  -10.1750 Br      1  MOL1       -0.0510
      7 C33         9.7010  -17.1980   -8.5890 C.ar    1  MOL1       -0.0430
      8  C6        11.8280  -17.3630   -7.2060 C.3     1  MOL1        0.0630
      9  C5        11.5740  -15.8930   -6.8250 C.3     1  MOL1        0.0510
     10  C1        14.0210  -14.5010   -4.1320 C.3     1  MOL1        0.0060
     11  N2        12.8560  -15.0920   -4.7740 N.am    1  MOL1       -0.3590
     12  C3        12.7860  -15.2710   -6.1930 C.2     1  MOL1        0.2220
     13  O4        13.7470  -14.9070   -6.9240 O.2     1  MOL1       -0.2750
     14  N7        12.9390  -17.4650   -8.1590 N.am    1  MOL1       -0.3460
     15  C8        13.8320  -18.5800   -8.1830 C.2     1  MOL1        0.2580
     16  O9        13.6910  -19.5240   -7.3610 O.2     1  MOL1       -0.2710
     17 C10        14.9350  -18.6460   -9.1960 C.3     1  MOL1        0.1670
     18 O11        16.0580  -17.8830   -8.7620 O.3     1  MOL1       -0.4800
     19 C12        17.3170  -18.4580   -8.5720 C.ar    1  MOL1        0.1660
     20 C13        17.7120  -18.9520   -7.3070 C.ar    1  MOL1        0.0120
     21 C21        18.9550  -19.5930   -7.1800 C.ar    1  MOL1       -0.0540
     22 C22        19.8120  -19.7000   -8.2750 C.ar    1  MOL1       -0.0580
     23 C23        19.4420  -19.1670   -9.5100 C.ar    1  MOL1       -0.0160
     24 C24        18.1930  -18.5380   -9.6660 C.ar    1  MOL1        0.1610
     25 C14        16.8320  -18.8070   -6.0850 C.3     1  MOL1        0.0280
     26 N15        17.5320  -18.0420   -5.0330 N.3     1  MOL1       -0.2870
     27 C16        17.2160  -18.5550   -3.6890 C.3     1  MOL1        0.0640
     28 C17        16.4930  -17.2820   -3.2930 C.3     1  MOL1        0.2720
     29 F18        17.1310  -16.5690   -2.2930 F       1  MOL1       -0.2040
     30 F19        15.1350  -17.4550   -3.0810 F       1  MOL1       -0.2040
     31 C20        16.8270  -16.7950   -4.6900 C.3     1  MOL1        0.0640
     32 O25        17.7830  -17.9890  -10.8900 O.3     1  MOL1       -0.4930
     33 C26        18.2530  -18.4190  -12.1640 C.3     1  MOL1        0.0780
@<TRIPOS>BOND
     1    33    32    1
     2    32    24    1
     3     6     5    1
     4    24    23   ar
     5    24    19   ar
     6    23    22   ar
     7    17    18    1
     8    17    15    1
     9     5     4   ar
    10     5     7   ar
    11     4     3   ar
    12    18    19    1
    13     7     1   ar
    14    19    20   ar
    15    22    21   ar
    16    15    14   am
    17    15    16    2
    18    14     8    1
    19     3     2   ar
    20     1     2   ar
    21     1     8    1
    22    20    21   ar
    23    20    25    1
    24     8     9    1
    25    13    12    2
    26     9    12    1
    27    12    11   am
    28    25    26    1
    29    26    31    1
    30    26    27    1
    31    11    10    1
    32    31    28    1
    33    27    28    1
    34    28    30    1
    35    28    29    1
