@<TRIPOS>MOLECULE
L3024_0_out.pdbqt
 33 35 0 0 0
SMALL
GASTEIGER

@<TRIPOS>ATOM
      1 C27         9.8980  -18.2720   -8.9700 C.ar    1  MOL1       -0.0240
      2 C28         9.5810  -17.2210   -8.0890 C.ar    1  MOL1       -0.0570
      3 C29         8.5650  -16.3130   -8.4080 C.ar    1  MOL1       -0.0610
      4 C30         7.8580  -16.4440   -9.6060 C.ar    1  MOL1       -0.0480
      5 C31         8.1610  -17.4860  -10.4890 C.ar    1  MOL1        0.0180
      6 Br32        7.1770  -17.6770  -12.1190 Br      1  MOL1       -0.0510
      7 C33         9.1790  -18.3930  -10.1770 C.ar    1  MOL1       -0.0430
      8  C6        11.0450  -19.2060   -8.6520 C.3     1  MOL1        0.0630
      9  C5        10.5420  -20.3920   -7.8110 C.3     1  MOL1        0.0510
     10  C1         9.6750  -23.2040  -10.3630 C.3     1  MOL1        0.0060
     11  N2         9.6340  -21.9700   -9.5920 N.am    1  MOL1       -0.3590
     12  C3        10.6050  -21.6790   -8.5810 C.2     1  MOL1        0.2220
     13  O4        11.5250  -22.5050   -8.3320 O.2     1  MOL1       -0.2750
     14  N7        12.1070  -18.4830   -7.9430 N.am    1  MOL1       -0.3460
     15  C8        13.4060  -18.2810   -8.5030 C.2     1  MOL1        0.2580
     16  O9        13.6840  -18.7380   -9.6440 O.2     1  MOL1       -0.2710
     17 C10        14.4470  -17.5130   -7.7460 C.3     1  MOL1        0.1670
     18 O11        14.2680  -17.6790   -6.3420 O.3     1  MOL1       -0.4800
     19 C12        15.3490  -17.7790   -5.4630 C.ar    1  MOL1        0.1660
     20 C13        15.9790  -19.0200   -5.2150 C.ar    1  MOL1        0.0120
     21 C21        17.1120  -19.0610   -4.3860 C.ar    1  MOL1       -0.0540
     22 C22        17.5830  -17.9000   -3.7740 C.ar    1  MOL1       -0.0580
     23 C23        16.9300  -16.6840   -3.9790 C.ar    1  MOL1       -0.0160
     24 C24        15.8050  -16.6150   -4.8220 C.ar    1  MOL1        0.1610
     25 C14        15.4640  -20.3080   -5.8190 C.3     1  MOL1        0.0280
     26 N15        16.4970  -20.9250   -6.6770 N.3     1  MOL1       -0.2870
     27 C16        16.1690  -20.7840   -8.1060 C.3     1  MOL1        0.0640
     28 C17        15.9840  -22.2780   -8.2850 C.3     1  MOL1        0.2720
     29 F18        16.9350  -22.8610   -9.1040 F       1  MOL1       -0.2040
     30 F19        14.6820  -22.6470   -8.5850 F       1  MOL1       -0.2040
     31 C20        16.3130  -22.3800   -6.8090 C.3     1  MOL1        0.0640
     32 O25        15.1200  -15.4140   -5.0530 O.3     1  MOL1       -0.4930
     33 C26        14.5760  -14.5860   -4.0300 C.3     1  MOL1        0.0780
@<TRIPOS>BOND
     1     6     5    1
     2     5     7   ar
     3     5     4   ar
     4    10    11    1
     5     7     1   ar
     6    16    15    2
     7     4     3   ar
     8    11    12   am
     9    29    28    1
    10     1     8    1
    11     1     2   ar
    12     8    14    1
    13     8     9    1
    14    30    28    1
    15    12    13    2
    16    12     9    1
    17    15    14   am
    18    15    17    1
    19     3     2   ar
    20    28    27    1
    21    28    31    1
    22    27    26    1
    23    17    18    1
    24    31    26    1
    25    26    25    1
    26    18    19    1
    27    25    20    1
    28    19    20   ar
    29    19    24   ar
    30    20    21   ar
    31    32    24    1
    32    32    33    1
    33    24    23   ar
    34    21    22   ar
    35    23    22   ar
