@<TRIPOS>MOLECULE
L3024_0_out.pdbqt
 33 35 0 0 0
SMALL
GASTEIGER

@<TRIPOS>ATOM
      1 C27        12.3700  -17.7360   -8.3270 C.ar    1  MOL1       -0.0240
      2 C28        11.6940  -17.0080   -7.3290 C.ar    1  MOL1       -0.0570
      3 C29        10.3120  -16.8070   -7.4130 C.ar    1  MOL1       -0.0610
      4 C30         9.5920  -17.3290   -8.4910 C.ar    1  MOL1       -0.0480
      5 C31        10.2510  -18.0570   -9.4880 C.ar    1  MOL1        0.0180
      6 Br32        9.2610  -18.7890  -10.9520 Br      1  MOL1       -0.0510
      7 C33        11.6330  -18.2550   -9.4110 C.ar    1  MOL1       -0.0430
      8  C6        13.8740  -17.8860   -8.2660 C.3     1  MOL1        0.0630
      9  C5        14.2610  -19.3700   -8.4030 C.3     1  MOL1        0.0510
     10  C1        17.6100  -20.8940   -9.6820 C.3     1  MOL1        0.0060
     11  N2        16.3610  -20.7000   -8.9600 N.am    1  MOL1       -0.3590
     12  C3        15.5500  -19.5360   -9.1550 C.2     1  MOL1        0.2220
     13  O4        15.9140  -18.6400   -9.9650 O.2     1  MOL1       -0.2750
     14  N7        14.3910  -17.3310   -7.0110 N.am    1  MOL1       -0.3460
     15  C8        15.4330  -16.3540   -6.9730 C.2     1  MOL1        0.2580
     16  O9        15.9550  -15.9410   -8.0420 O.2     1  MOL1       -0.2710
     17 C10        15.9060  -15.8000   -5.6620 C.3     1  MOL1        0.1670
     18 O11        14.9340  -16.0290   -4.6440 O.3     1  MOL1       -0.4800
     19 C12        15.2930  -16.4130   -3.3500 C.ar    1  MOL1        0.1660
     20 C13        15.5490  -17.7670   -3.0330 C.ar    1  MOL1        0.0120
     21 C21        15.9840  -18.0980   -1.7390 C.ar    1  MOL1       -0.0540
     22 C22        16.1160  -17.1110   -0.7630 C.ar    1  MOL1       -0.0580
     23 C23        15.8150  -15.7820   -1.0630 C.ar    1  MOL1       -0.0160
     24 C24        15.3970  -15.4240   -2.3580 C.ar    1  MOL1        0.1610
     25 C14        15.3650  -18.8710   -4.0510 C.3     1  MOL1        0.0280
     26 N15        16.6170  -19.6390   -4.2100 N.3     1  MOL1       -0.2870
     27 C16        17.7500  -18.7620   -4.5530 C.3     1  MOL1        0.0640
     28 C17        17.9030  -19.3770   -5.9310 C.3     1  MOL1        0.2720
     29 F18        19.0830  -20.0810   -6.0970 F       1  MOL1       -0.2040
     30 F19        17.6220  -18.5020   -6.9670 F       1  MOL1       -0.2040
     31 C20        16.7260  -20.2520   -5.5450 C.3     1  MOL1        0.0640
     32 O25        15.0830  -14.1000   -2.7010 O.3     1  MOL1       -0.4930
     33 C26        13.7630  -13.6160   -2.9210 C.3     1  MOL1        0.0780
@<TRIPOS>BOND
     1     6     5    1
     2    13    12    2
     3    10    11    1
     4     5     7   ar
     5     5     4   ar
     6     7     1   ar
     7    12    11   am
     8    12     9    1
     9     4     3   ar
    10     9     8    1
    11     1     8    1
    12     1     2   ar
    13     8    14    1
    14    16    15    2
    15     3     2   ar
    16    14    15   am
    17    15    17    1
    18    30    28    1
    19    29    28    1
    20    28    31    1
    21    28    27    1
    22    17    18    1
    23    31    26    1
    24    18    19    1
    25    27    26    1
    26    26    25    1
    27    25    20    1
    28    19    20   ar
    29    19    24   ar
    30    20    21   ar
    31    33    32    1
    32    32    24    1
    33    24    23   ar
    34    21    22   ar
    35    23    22   ar
