@<TRIPOS>MOLECULE
L3024_0_out.pdbqt
 33 35 0 0 0
SMALL
GASTEIGER

@<TRIPOS>ATOM
      1 C27         7.7850  -20.0380  -10.4790 C.ar    1  MOL1       -0.0240
      2 C28         6.4170  -20.1990  -10.1920 C.ar    1  MOL1       -0.0570
      3 C29         5.9150  -21.4520   -9.8240 C.ar    1  MOL1       -0.0610
      4 C30         6.7710  -22.5540   -9.7400 C.ar    1  MOL1       -0.0480
      5 C31         8.1340  -22.4060  -10.0200 C.ar    1  MOL1        0.0180
      6 Br32        9.3090  -23.9100   -9.8830 Br      1  MOL1       -0.0510
      7 C33         8.6390  -21.1560  -10.3930 C.ar    1  MOL1       -0.0430
      8  C6         8.3070  -18.6960  -10.9460 C.3     1  MOL1        0.0630
      9  C5         9.8360  -18.6380  -10.7790 C.3     1  MOL1        0.0510
     10  C1        11.1620  -19.2310   -7.1650 C.3     1  MOL1        0.0060
     11  N2        10.7670  -19.4440   -8.5490 N.am    1  MOL1       -0.3590
     12  C3        10.2240  -18.3890   -9.3500 C.2     1  MOL1        0.2220
     13  O4        10.0720  -17.2370   -8.8590 O.2     1  MOL1       -0.2750
     14  N7         7.6640  -17.6110  -10.1970 N.am    1  MOL1       -0.3460
     15  C8         6.9000  -16.5850  -10.8330 C.2     1  MOL1        0.2580
     16  O9         6.7640  -16.5780  -12.0850 O.2     1  MOL1       -0.2710
     17 C10         6.2410  -15.5130  -10.0160 C.3     1  MOL1        0.1670
     18 O11         5.1000  -14.9980  -10.6970 O.3     1  MOL1       -0.4800
     19 C12         3.8930  -14.7490  -10.0370 C.ar    1  MOL1        0.1660
     20 C13         2.8470  -14.0390  -10.6690 C.ar    1  MOL1        0.0120
     21 C21         1.6230  -13.8800   -9.9980 C.ar    1  MOL1       -0.0540
     22 C22         1.4560  -14.3730   -8.7040 C.ar    1  MOL1       -0.0580
     23 C23         2.5060  -15.0300   -8.0630 C.ar    1  MOL1       -0.0160
     24 C24         3.7350  -15.2190   -8.7230 C.ar    1  MOL1        0.1610
     25 C14         3.0100  -13.4430  -12.0500 C.3     1  MOL1        0.0280
     26 N15         3.7660  -12.1760  -11.9800 N.3     1  MOL1       -0.2870
     27 C16         3.1070  -11.2010  -11.0940 C.3     1  MOL1        0.0640
     28 C17         2.8010  -10.2570  -12.2400 C.3     1  MOL1        0.2720
     29 F18         3.4890   -9.0580  -12.1710 F       1  MOL1       -0.2040
     30 F19         1.4470  -10.1130  -12.4980 F       1  MOL1       -0.2040
     31 C20         3.4750  -11.2910  -13.1210 C.3     1  MOL1        0.0640
     32 O25         4.8160  -15.8720   -8.1130 O.3     1  MOL1       -0.4930
     33 C26         5.0760  -15.8640   -6.7130 C.3     1  MOL1        0.0780
@<TRIPOS>BOND
     1    31    28    1
     2    31    26    1
     3    30    28    1
     4    28    29    1
     5    28    27    1
     6    16    15    2
     7    25    26    1
     8    25    20    1
     9    26    27    1
    10     8     9    1
    11     8     1    1
    12     8    14    1
    13    15    14   am
    14    15    17    1
    15     9    12    1
    16    18    19    1
    17    18    17    1
    18    20    19   ar
    19    20    21   ar
    20     1     7   ar
    21     1     2   ar
    22     7     5   ar
    23     2     3   ar
    24    19    24   ar
    25     5     6    1
    26     5     4   ar
    27    21    22   ar
    28     3     4   ar
    29    12    13    2
    30    12    11   am
    31    24    32    1
    32    24    23   ar
    33    22    23   ar
    34    11    10    1
    35    32    33    1
