@<TRIPOS>MOLECULE
L3024_0_out.pdbqt
 33 35 0 0 0
SMALL
GASTEIGER

@<TRIPOS>ATOM
      1 C27         4.8800  -21.0310   -9.3590 C.ar    1  MOL1       -0.0240
      2 C28         4.8290  -22.0430  -10.3340 C.ar    1  MOL1       -0.0570
      3 C29         3.6580  -22.7860  -10.5210 C.ar    1  MOL1       -0.0610
      4 C30         2.5300  -22.5270   -9.7380 C.ar    1  MOL1       -0.0480
      5 C31         2.5670  -21.5210   -8.7660 C.ar    1  MOL1        0.0180
      6 Br32        1.0160  -21.1520   -7.7090 Br      1  MOL1       -0.0510
      7 C33         3.7370  -20.7790   -8.5730 C.ar    1  MOL1       -0.0430
      8  C6         6.1720  -20.2810   -9.1130 C.3     1  MOL1        0.0630
      9  C5         7.0930  -21.1040   -8.1940 C.3     1  MOL1        0.0510
     10  C1        10.6780  -19.6060   -8.4730 C.3     1  MOL1        0.0060
     11  N2         9.2740  -19.7910   -8.1340 N.am    1  MOL1       -0.3590
     12  C3         8.5370  -20.9380   -8.5700 C.2     1  MOL1        0.2220
     13  O4         9.0990  -21.8210   -9.2730 O.2     1  MOL1       -0.2750
     14  N7         5.8930  -18.9680   -8.5220 N.am    1  MOL1       -0.3460
     15  C8         6.3630  -17.7490   -9.1000 C.2     1  MOL1        0.2580
     16  O9         7.0550  -17.7700  -10.1530 O.2     1  MOL1       -0.2710
     17 C10         6.0270  -16.4310   -8.4690 C.3     1  MOL1        0.1670
     18 O11         5.4340  -15.5560   -9.4260 O.3     1  MOL1       -0.4800
     19 C12         4.1110  -15.1220   -9.3130 C.ar    1  MOL1        0.1660
     20 C13         3.4510  -14.4990  -10.3970 C.ar    1  MOL1        0.0120
     21 C21         2.0960  -14.1490  -10.2650 C.ar    1  MOL1       -0.0540
     22 C22         1.4220  -14.3700   -9.0640 C.ar    1  MOL1       -0.0580
     23 C23         2.0890  -14.9390   -7.9800 C.ar    1  MOL1       -0.0160
     24 C24         3.4400  -15.3150   -8.0940 C.ar    1  MOL1        0.1610
     25 C14         4.1640  -14.1950  -11.6960 C.3     1  MOL1        0.0280
     26 N15         4.5730  -12.7770  -11.7410 N.3     1  MOL1       -0.2870
     27 C16         3.5360  -11.8960  -11.1770 C.3     1  MOL1        0.0640
     28 C17         3.2640  -11.2370  -12.5150 C.3     1  MOL1        0.2720
     29 F18         3.6250   -9.9020  -12.5610 F       1  MOL1       -0.2040
     30 F19         1.9990  -11.4940  -13.0170 F       1  MOL1       -0.2040
     31 C20         4.3290  -12.1690  -13.0600 C.3     1  MOL1        0.0640
     32 O25         4.1470  -15.8890   -7.0270 O.3     1  MOL1       -0.4930
     33 C26         4.0240  -15.4830   -5.6680 C.3     1  MOL1        0.0780
@<TRIPOS>BOND
     1    31    28    1
     2    31    26    1
     3    30    28    1
     4    29    28    1
     5    28    27    1
     6    26    25    1
     7    26    27    1
     8    25    20    1
     9     3     2   ar
    10     3     4   ar
    11    20    21   ar
    12    20    19   ar
    13     2     1   ar
    14    21    22   ar
    15    16    15    2
    16     4     5   ar
    17    18    19    1
    18    18    17    1
    19     1     8    1
    20     1     7   ar
    21    19    24   ar
    22    13    12    2
    23     8    14    1
    24     8     9    1
    25    15    14   am
    26    15    17    1
    27    22    23   ar
    28     5     7   ar
    29     5     6    1
    30    12     9    1
    31    12    11   am
    32    10    11    1
    33    24    23   ar
    34    24    32    1
    35    32    33    1
