@<TRIPOS>MOLECULE
L3024_0_out.pdbqt
 33 35 0 0 0
SMALL
GASTEIGER

@<TRIPOS>ATOM
      1 C27        15.4070  -20.8400   -7.8120 C.ar    1  MOL1       -0.0240
      2 C28        15.5030  -20.2540   -9.0880 C.ar    1  MOL1       -0.0570
      3 C29        16.4320  -19.2370   -9.3320 C.ar    1  MOL1       -0.0610
      4 C30        17.2730  -18.7950   -8.3070 C.ar    1  MOL1       -0.0480
      5 C31        17.1910  -19.3720   -7.0340 C.ar    1  MOL1        0.0180
      6 Br32       18.3580  -18.7810   -5.6380 Br      1  MOL1       -0.0510
      7 C33        16.2590  -20.3850   -6.7860 C.ar    1  MOL1       -0.0430
      8  C6        14.3510  -21.8880   -7.5380 C.3     1  MOL1        0.0630
      9  C5        14.4770  -23.0420   -8.5490 C.3     1  MOL1        0.0510
     10  C1        11.5790  -25.5450   -9.2610 C.3     1  MOL1        0.0060
     11  N2        12.6120  -24.5340   -9.4330 N.am    1  MOL1       -0.3590
     12  C3        13.4120  -24.0790   -8.3370 C.2     1  MOL1        0.2220
     13  O4        13.2290  -24.5510   -7.1820 O.2     1  MOL1       -0.2750
     14  N7        13.0130  -21.2900   -7.6010 N.am    1  MOL1       -0.3460
     15  C8        12.2780  -20.9250   -6.4310 C.2     1  MOL1        0.2580
     16  O9        12.7670  -21.1200   -5.2870 O.2     1  MOL1       -0.2710
     17 C10        10.9240  -20.2920   -6.5530 C.3     1  MOL1        0.1670
     18 O11        10.7660  -19.6960   -7.8380 O.3     1  MOL1       -0.4800
     19 C12         9.8560  -18.6610   -8.0690 C.ar    1  MOL1        0.1660
     20 C13         8.5700  -18.9220   -8.5950 C.ar    1  MOL1        0.0120
     21 C21         7.6590  -17.8610   -8.7360 C.ar    1  MOL1       -0.0540
     22 C22         8.0330  -16.5590   -8.4070 C.ar    1  MOL1       -0.0580
     23 C23         9.3190  -16.2960   -7.9350 C.ar    1  MOL1       -0.0160
     24 C24        10.2420  -17.3450   -7.7670 C.ar    1  MOL1        0.1610
     25 C14         8.1470  -20.3130   -9.0130 C.3     1  MOL1        0.0280
     26 N15         6.7070  -20.3370   -9.3430 N.3     1  MOL1       -0.2870
     27 C16         6.0790  -21.6040   -8.9320 C.3     1  MOL1        0.0640
     28 C17         5.8000  -22.0150  -10.3640 C.3     1  MOL1        0.2720
     29 F18         4.4530  -22.0610  -10.6770 F       1  MOL1       -0.2040
     30 F19         6.5090  -23.1340  -10.7710 F       1  MOL1       -0.2040
     31 C20         6.4650  -20.7080  -10.7480 C.3     1  MOL1        0.0640
     32 O25        11.5450  -17.1230   -7.2960 O.3     1  MOL1       -0.4930
     33 C26        11.9950  -15.9030   -6.7180 C.3     1  MOL1        0.0780
@<TRIPOS>BOND
     1    30    28    1
     2    31    28    1
     3    31    26    1
     4    29    28    1
     5    28    27    1
     6    11    10    1
     7    11    12   am
     8    26    25    1
     9    26    27    1
    10     3     2   ar
    11     3     4   ar
    12     2     1   ar
    13    25    20    1
    14    21    20   ar
    15    21    22   ar
    16    20    19   ar
    17     9    12    1
    18     9     8    1
    19    22    23   ar
    20    12    13    2
    21     4     5   ar
    22    19    18    1
    23    19    24   ar
    24    23    24   ar
    25    18    17    1
    26     1     8    1
    27     1     7   ar
    28    24    32    1
    29    14     8    1
    30    14    15   am
    31    32    33    1
    32     5     7   ar
    33     5     6    1
    34    17    15    1
    35    15    16    2
