@<TRIPOS>MOLECULE
L3024_0_out.pdbqt
 33 35 0 0 0
SMALL
GASTEIGER

@<TRIPOS>ATOM
      1 C27        10.5450  -18.0500   -9.0150 C.ar    1  MOL1       -0.0240
      2 C28        11.7250  -18.4330   -9.6780 C.ar    1  MOL1       -0.0570
      3 C29        12.9680  -17.9640   -9.2370 C.ar    1  MOL1       -0.0610
      4 C30        13.0440  -17.1100   -8.1330 C.ar    1  MOL1       -0.0480
      5 C31        11.8770  -16.7240   -7.4630 C.ar    1  MOL1        0.0180
      6 Br32       11.9840  -15.5730   -5.9390 Br      1  MOL1       -0.0510
      7 C33        10.6330  -17.1870   -7.9040 C.ar    1  MOL1       -0.0430
      8  C6         9.2000  -18.5030   -9.5420 C.3     1  MOL1        0.0630
      9  C5         9.3940  -19.4230  -10.7610 C.3     1  MOL1        0.0510
     10  C1         9.1760  -23.1640   -9.6960 C.3     1  MOL1        0.0060
     11  N2         9.6810  -21.8250   -9.9630 N.am    1  MOL1       -0.3590
     12  C3         8.8450  -20.7970  -10.5060 C.2     1  MOL1        0.2220
     13  O4         7.6360  -21.0400  -10.7720 O.2     1  MOL1       -0.2750
     14  N7         8.3760  -17.3430   -9.8960 N.am    1  MOL1       -0.3460
     15  C8         6.9470  -17.3800   -9.8790 C.2     1  MOL1        0.2580
     16  O9         6.3430  -18.4390   -9.5610 O.2     1  MOL1       -0.2710
     17 C10         6.1530  -16.1570  -10.2250 C.3     1  MOL1        0.1670
     18 O11         5.7060  -15.5000   -9.0410 O.3     1  MOL1       -0.4800
     19 C12         4.3580  -15.2080   -8.8190 C.ar    1  MOL1        0.1660
     20 C13         3.6280  -14.3960   -9.7170 C.ar    1  MOL1        0.0120
     21 C21         2.2550  -14.1940   -9.4970 C.ar    1  MOL1       -0.0540
     22 C22         1.6280  -14.7470   -8.3810 C.ar    1  MOL1       -0.0580
     23 C23         2.3610  -15.5060   -7.4690 C.ar    1  MOL1       -0.0160
     24 C24         3.7330  -15.7390   -7.6790 C.ar    1  MOL1        0.1610
     25 C14         4.2850  -13.7370  -10.9090 C.3     1  MOL1        0.0280
     26 N15         3.3610  -12.7710  -11.5390 N.3     1  MOL1       -0.2870
     27 C16         3.0780  -13.1270  -12.9400 C.3     1  MOL1        0.0640
     28 C17         3.7760  -11.8910  -13.4720 C.3     1  MOL1        0.2720
     29 F18         2.9210  -10.9900  -14.0820 F       1  MOL1       -0.2040
     30 F19         4.9180  -12.1680  -14.2060 F       1  MOL1       -0.2040
     31 C20         4.0590  -11.5660  -12.0180 C.3     1  MOL1        0.0640
     32 O25         4.5050  -16.4960   -6.7860 O.3     1  MOL1       -0.4930
     33 C26         4.7800  -17.8850   -6.9350 C.3     1  MOL1        0.0780
@<TRIPOS>BOND
     1    30    28    1
     2    29    28    1
     3    28    27    1
     4    28    31    1
     5    27    26    1
     6    31    26    1
     7    26    25    1
     8    25    20    1
     9    13    12    2
    10     9    12    1
    11     9     8    1
    12    12    11   am
    13    17    15    1
    14    17    18    1
    15    11    10    1
    16    14    15   am
    17    14     8    1
    18    15    16    2
    19    20    21   ar
    20    20    19   ar
    21     2     3   ar
    22     2     1   ar
    23     8     1    1
    24    21    22   ar
    25     3     4   ar
    26    18    19    1
    27     1     7   ar
    28    19    24   ar
    29    22    23   ar
    30     4     5   ar
    31     7     5   ar
    32    24    23   ar
    33    24    32    1
    34     5     6    1
    35    33    32    1
