@<TRIPOS>MOLECULE
L3024_0_out.pdbqt
 33 35 0 0 0
SMALL
GASTEIGER

@<TRIPOS>ATOM
      1 C27         8.4400  -17.3490   -8.9830 C.ar    1  MOL1       -0.0240
      2 C28         8.1780  -16.9610  -10.3100 C.ar    1  MOL1       -0.0570
      3 C29         6.9510  -16.3810  -10.6480 C.ar    1  MOL1       -0.0610
      4 C30         5.9750  -16.1830   -9.6670 C.ar    1  MOL1       -0.0480
      5 C31         6.2240  -16.5620   -8.3430 C.ar    1  MOL1        0.0180
      6 Br32        4.8950  -16.2720   -6.9970 Br      1  MOL1       -0.0510
      7 C33         7.4480  -17.1470   -8.0030 C.ar    1  MOL1       -0.0430
      8  C6         9.7420  -18.0420   -8.6400 C.3     1  MOL1        0.0630
      9  C5         9.4570  -19.3610   -7.9000 C.3     1  MOL1        0.0510
     10  C1         7.4150  -22.2340   -9.5600 C.3     1  MOL1        0.0060
     11  N2         7.8380  -21.1790   -8.6490 N.am    1  MOL1       -0.3590
     12  C3         9.0540  -20.4510   -8.8510 C.2     1  MOL1        0.2220
     13  O4         9.7960  -20.7180   -9.8360 O.2     1  MOL1       -0.2750
     14  N7        10.5850  -17.1630   -7.8230 N.am    1  MOL1       -0.3460
     15  C8        12.0130  -17.2320   -7.8430 C.2     1  MOL1        0.2580
     16  O9        12.5980  -18.0760   -8.5720 O.2     1  MOL1       -0.2710
     17 C10        12.8280  -16.2910   -7.0070 C.3     1  MOL1        0.1670
     18 O11        13.9160  -16.9820   -6.3970 O.3     1  MOL1       -0.4800
     19 C12        15.1520  -16.3680   -6.1730 C.ar    1  MOL1        0.1660
     20 C13        16.1500  -16.3470   -7.1740 C.ar    1  MOL1        0.0120
     21 C21        17.3460  -15.6500   -6.9340 C.ar    1  MOL1       -0.0540
     22 C22        17.5690  -15.0270   -5.7060 C.ar    1  MOL1       -0.0580
     23 C23        16.6030  -15.0920   -4.7010 C.ar    1  MOL1       -0.0160
     24 C24        15.3880  -15.7670   -4.9260 C.ar    1  MOL1        0.1610
     25 C14        15.9660  -17.0560   -8.4970 C.3     1  MOL1        0.0280
     26 N15        17.2320  -17.6850   -8.9250 N.3     1  MOL1       -0.2870
     27 C16        17.7470  -17.0790  -10.1650 C.3     1  MOL1        0.0640
     28 C17        17.5420  -18.3530  -10.9600 C.3     1  MOL1        0.2720
     29 F18        18.7220  -18.9400  -11.3830 F       1  MOL1       -0.2040
     30 F19        16.5820  -18.2440  -11.9530 F       1  MOL1       -0.2040
     31 C20        17.0070  -18.9380   -9.6670 C.3     1  MOL1        0.0640
     32 O25        14.3920  -15.8560   -3.9420 O.3     1  MOL1       -0.4930
     33 C26        13.4330  -14.8390   -3.6730 C.3     1  MOL1        0.0780
@<TRIPOS>BOND
     1    30    28    1
     2    29    28    1
     3    28    27    1
     4    28    31    1
     5     3     2   ar
     6     3     4   ar
     7     2     1   ar
     8    27    26    1
     9    13    12    2
    10     4     5   ar
    11    31    26    1
    12    10    11    1
    13     1     8    1
    14     1     7   ar
    15    26    25    1
    16    12    11   am
    17    12     9    1
    18     8     9    1
    19     8    14    1
    20    16    15    2
    21    25    20    1
    22     5     7   ar
    23     5     6    1
    24    15    14   am
    25    15    17    1
    26    20    21   ar
    27    20    19   ar
    28    17    18    1
    29    21    22   ar
    30    18    19    1
    31    19    24   ar
    32    22    23   ar
    33    24    23   ar
    34    24    32    1
    35    32    33    1
