@<TRIPOS>MOLECULE
L3024_0_out.pdbqt
 33 35 0 0 0
SMALL
GASTEIGER

@<TRIPOS>ATOM
      1 C27         7.2790  -16.8350  -10.5140 C.ar    1  MOL1       -0.0240
      2 C28         7.3940  -17.5520  -11.7180 C.ar    1  MOL1       -0.0570
      3 C29         6.7440  -17.1050  -12.8730 C.ar    1  MOL1       -0.0610
      4 C30         5.9730  -15.9390  -12.8370 C.ar    1  MOL1       -0.0480
      5 C31         5.8530  -15.2140  -11.6460 C.ar    1  MOL1        0.0180
      6 Br32        4.8160  -13.6070  -11.6040 Br      1  MOL1       -0.0510
      7 C33         6.4980  -15.6620  -10.4890 C.ar    1  MOL1       -0.0430
      8  C6         7.9260  -17.3640   -9.2520 C.3     1  MOL1        0.0630
      9  C5         7.5990  -16.4410   -8.0640 C.3     1  MOL1        0.0510
     10  C1         4.2000  -15.9390   -6.2280 C.3     1  MOL1        0.0060
     11  N2         5.5360  -15.7120   -6.7610 N.am    1  MOL1       -0.3590
     12  C3         6.2260  -16.7110   -7.5200 C.2     1  MOL1        0.2220
     13  O4         5.6810  -17.8270   -7.7380 O.2     1  MOL1       -0.2750
     14  N7         9.3770  -17.4780   -9.4340 N.am    1  MOL1       -0.3460
     15  C8        10.1260  -18.6000   -8.9640 C.2     1  MOL1        0.2580
     16  O9         9.5470  -19.5410   -8.3570 O.2     1  MOL1       -0.2710
     17 C10        11.6040  -18.6780   -9.1990 C.3     1  MOL1        0.1670
     18 O11        12.2760  -19.1070   -8.0170 O.3     1  MOL1       -0.4800
     19 C12        13.4160  -19.9140   -8.0640 C.ar    1  MOL1        0.1660
     20 C13        14.7020  -19.3530   -8.2410 C.ar    1  MOL1        0.0120
     21 C21        15.8280  -20.1920   -8.2020 C.ar    1  MOL1       -0.0540
     22 C22        15.6780  -21.5690   -8.0400 C.ar    1  MOL1       -0.0580
     23 C23        14.4050  -22.1270   -7.9150 C.ar    1  MOL1       -0.0160
     24 C24        13.2640  -21.3040   -7.9310 C.ar    1  MOL1        0.1610
     25 C14        14.8990  -17.8710   -8.4730 C.3     1  MOL1        0.0280
     26 N15        15.6160  -17.2610   -7.3340 N.3     1  MOL1       -0.2870
     27 C16        15.2460  -15.8470   -7.1550 C.3     1  MOL1        0.0640
     28 C17        16.6360  -15.3610   -7.5150 C.3     1  MOL1        0.2720
     29 F18        17.3080  -14.7700   -6.4590 F       1  MOL1       -0.2040
     30 F19        16.6850  -14.6310   -8.6910 F       1  MOL1       -0.2040
     31 C20        16.9750  -16.8270   -7.7020 C.3     1  MOL1        0.0640
     32 O25        11.9680  -21.8240   -7.8100 O.3     1  MOL1       -0.4930
     33 C26        11.5580  -23.0920   -8.3130 C.3     1  MOL1        0.0780
@<TRIPOS>BOND
     1     3     4   ar
     2     3     2   ar
     3     4     5   ar
     4     2     1   ar
     5     5     6    1
     6     5     7   ar
     7     1     7   ar
     8     1     8    1
     9    14     8    1
    10    14    15   am
    11     8     9    1
    12    17    15    1
    13    17    18    1
    14    15    16    2
    15    30    28    1
    16    25    20    1
    17    25    26    1
    18    33    32    1
    19    20    21   ar
    20    20    19   ar
    21    21    22   ar
    22     9    12    1
    23    19    18    1
    24    19    24   ar
    25    22    23   ar
    26    24    23   ar
    27    24    32    1
    28    13    12    2
    29    31    28    1
    30    31    26    1
    31    12    11   am
    32    28    27    1
    33    28    29    1
    34    26    27    1
    35    11    10    1
