@<TRIPOS>MOLECULE
L3024_0_out.pdbqt
 33 35 0 0 0
SMALL
GASTEIGER

@<TRIPOS>ATOM
      1 C27         9.8230  -17.4480   -8.5190 C.ar    1  MOL1       -0.0240
      2 C28         9.0920  -16.4430   -7.8580 C.ar    1  MOL1       -0.0570
      3 C29         7.9000  -15.9580   -8.4070 C.ar    1  MOL1       -0.0610
      4 C30         7.4270  -16.4690   -9.6190 C.ar    1  MOL1       -0.0480
      5 C31         8.1420  -17.4710  -10.2850 C.ar    1  MOL1        0.0180
      6 Br32        7.4830  -18.1860  -11.9320 Br      1  MOL1       -0.0510
      7 C33         9.3370  -17.9550   -9.7410 C.ar    1  MOL1       -0.0430
      8  C6        11.1470  -17.9150   -7.9550 C.3     1  MOL1        0.0630
      9  C5        10.9940  -19.3200   -7.3450 C.3     1  MOL1        0.0510
     10  C1        14.5530  -20.6290   -8.2370 C.3     1  MOL1        0.0060
     11  N2        13.4550  -19.7650   -7.8280 N.am    1  MOL1       -0.3590
     12  C3        12.1030  -20.2340   -7.7800 C.2     1  MOL1        0.2220
     13  O4        11.8340  -21.4230   -8.1020 O.2     1  MOL1       -0.2750
     14  N7        11.6350  -16.9660   -6.9500 N.am    1  MOL1       -0.3460
     15  C8        12.8490  -16.2290   -7.1130 C.2     1  MOL1        0.2580
     16  O9        13.5540  -16.3860   -8.1450 O.2     1  MOL1       -0.2710
     17 C10        13.2890  -15.2500   -6.0660 C.3     1  MOL1        0.1670
     18 O11        14.7080  -15.1170   -6.0730 O.3     1  MOL1       -0.4800
     19 C12        15.5090  -15.6620   -5.0650 C.ar    1  MOL1        0.1660
     20 C13        16.3170  -16.7960   -5.3080 C.ar    1  MOL1        0.0120
     21 C21        17.1660  -17.2630   -4.2900 C.ar    1  MOL1       -0.0540
     22 C22        17.1780  -16.6460   -3.0390 C.ar    1  MOL1       -0.0580
     23 C23        16.3420  -15.5580   -2.7860 C.ar    1  MOL1       -0.0160
     24 C24        15.4980  -15.0600   -3.7960 C.ar    1  MOL1        0.1610
     25 C14        16.2920  -17.5240   -6.6340 C.3     1  MOL1        0.0280
     26 N15        17.4340  -17.1070   -7.4730 N.3     1  MOL1       -0.2870
     27 C16        16.9890  -16.3670   -8.6660 C.3     1  MOL1        0.0640
     28 C17        17.4680  -17.4540   -9.6080 C.3     1  MOL1        0.2720
     29 F18        18.5240  -17.0650  -10.4130 F       1  MOL1       -0.2040
     30 F19        16.4440  -18.0880  -10.2930 F       1  MOL1       -0.2040
     31 C20        17.9000  -18.1900   -8.3550 C.3     1  MOL1        0.0640
     32 O25        14.6430  -13.9690   -3.5830 O.3     1  MOL1       -0.4930
     33 C26        13.9590  -13.7090   -2.3620 C.3     1  MOL1        0.0780
@<TRIPOS>BOND
     1     6     5    1
     2    29    28    1
     3    30    28    1
     4     5     7   ar
     5     5     4   ar
     6     7     1   ar
     7     4     3   ar
     8    28    27    1
     9    28    31    1
    10    27    26    1
    11     1     8    1
    12     1     2   ar
    13     3     2   ar
    14    31    26    1
    15    10    11    1
    16    16    15    2
    17    13    12    2
    18     8     9    1
    19     8    14    1
    20    11    12   am
    21    12     9    1
    22    26    25    1
    23    15    14   am
    24    15    17    1
    25    25    20    1
    26    18    17    1
    27    18    19    1
    28    20    19   ar
    29    20    21   ar
    30    19    24   ar
    31    21    22   ar
    32    24    32    1
    33    24    23   ar
    34    32    33    1
    35    22    23   ar
