@<TRIPOS>MOLECULE
L3024_0_out.pdbqt
 33 35 0 0 0
SMALL
GASTEIGER

@<TRIPOS>ATOM
      1 C27         9.3430  -18.2810   -9.1880 C.ar    1  MOL1       -0.0240
      2 C28         9.0770  -17.2250   -8.2970 C.ar    1  MOL1       -0.0570
      3 C29         8.1760  -16.2140   -8.6480 C.ar    1  MOL1       -0.0610
      4 C30         7.5340  -16.2460   -9.8890 C.ar    1  MOL1       -0.0480
      5 C31         7.7870  -17.2920  -10.7830 C.ar    1  MOL1        0.0180
      6 Br32        6.8910  -17.3470  -12.4720 Br      1  MOL1       -0.0510
      7 C33         8.6910  -18.3020  -10.4380 C.ar    1  MOL1       -0.0430
      8  C6        10.3730  -19.3310   -8.8310 C.3     1  MOL1        0.0630
      9  C5         9.6920  -20.5190   -8.1280 C.3     1  MOL1        0.0510
     10  C1         7.3930  -22.7360  -10.3580 C.3     1  MOL1        0.0060
     11  N2         7.8560  -21.7430   -9.4000 N.am    1  MOL1       -0.3590
     12  C3         9.2460  -21.5600   -9.1150 C.2     1  MOL1        0.2220
     13  O4        10.1100  -22.2730   -9.6950 O.2     1  MOL1       -0.2750
     14  N7        11.4130  -18.7520   -7.9740 N.am    1  MOL1       -0.3460
     15  C8        12.7280  -19.3040   -7.8810 C.2     1  MOL1        0.2580
     16  O9        13.0330  -20.3330   -8.5410 O.2     1  MOL1       -0.2710
     17 C10        13.7630  -18.6570   -7.0100 C.3     1  MOL1        0.1670
     18 O11        15.0710  -19.0720   -7.3960 O.3     1  MOL1       -0.4800
     19 C12        16.2050  -18.7360   -6.6520 C.ar    1  MOL1        0.1660
     20 C13        16.8050  -17.4610   -6.7690 C.ar    1  MOL1        0.0120
     21 C21        17.8950  -17.1380   -5.9440 C.ar    1  MOL1       -0.0540
     22 C22        18.4120  -18.0800   -5.0540 C.ar    1  MOL1       -0.0580
     23 C23        17.8510  -19.3540   -4.9760 C.ar    1  MOL1       -0.0160
     24 C24        16.7450  -19.6940   -5.7780 C.ar    1  MOL1        0.1610
     25 C14        16.3050  -16.4330   -7.7600 C.3     1  MOL1        0.0280
     26 N15        16.0000  -15.1610   -7.0740 N.3     1  MOL1       -0.2870
     27 C16        15.1160  -15.3690   -5.9140 C.3     1  MOL1        0.0640
     28 C17        13.9750  -14.6030   -6.5540 C.3     1  MOL1        0.2720
     29 F18        13.6680  -13.4190   -5.9060 F       1  MOL1       -0.2040
     30 F19        12.8700  -15.3870   -6.8430 F       1  MOL1       -0.2040
     31 C20        14.9100  -14.4210   -7.7330 C.3     1  MOL1        0.0640
     32 O25        16.1520  -20.9640   -5.7310 O.3     1  MOL1       -0.4930
     33 C26        16.0710  -21.8560   -6.8370 C.3     1  MOL1        0.0780
@<TRIPOS>BOND
     1     6     5    1
     2     5     7   ar
     3     5     4   ar
     4     7     1   ar
     5    10    11    1
     6     4     3   ar
     7    13    12    2
     8    11    12   am
     9     1     8    1
    10     1     2   ar
    11    12     9    1
    12     8     9    1
    13     8    14    1
    14     3     2   ar
    15    16    15    2
    16    14    15   am
    17    15    17    1
    18    25    26    1
    19    25    20    1
    20    31    26    1
    21    31    28    1
    22    18    17    1
    23    18    19    1
    24    26    27    1
    25    30    28    1
    26    33    32    1
    27    20    19   ar
    28    20    21   ar
    29    19    24   ar
    30    28    27    1
    31    28    29    1
    32    21    22   ar
    33    24    32    1
    34    24    23   ar
    35    22    23   ar
