@<TRIPOS>MOLECULE
L3024_0_out.pdbqt
 33 35 0 0 0
SMALL
GASTEIGER

@<TRIPOS>ATOM
      1 C27         8.0680  -17.3320   -9.0570 C.ar    1  MOL1       -0.0240
      2 C28         7.2750  -17.3190   -7.8940 C.ar    1  MOL1       -0.0570
      3 C29         6.0390  -16.6640   -7.8880 C.ar    1  MOL1       -0.0610
      4 C30         5.5820  -16.0180   -9.0400 C.ar    1  MOL1       -0.0480
      5 C31         6.3580  -16.0270  -10.2040 C.ar    1  MOL1        0.0180
      6 Br32        5.7220  -15.1600  -11.7870 Br      1  MOL1       -0.0510
      7 C33         7.5980  -16.6750  -10.2120 C.ar    1  MOL1       -0.0430
      8  C6         9.4350  -17.9790   -9.0330 C.3     1  MOL1        0.0630
      9  C5         9.3020  -19.4830   -8.7300 C.3     1  MOL1        0.0510
     10  C1         8.0790  -22.2510  -11.1830 C.3     1  MOL1        0.0060
     11  N2         8.2950  -21.4600   -9.9790 N.am    1  MOL1       -0.3590
     12  C3         9.1080  -20.2820   -9.9860 C.2     1  MOL1        0.2220
     13  O4         9.6660  -19.9050  -11.0530 O.2     1  MOL1       -0.2750
     14  N7        10.2900  -17.3250   -8.0360 N.am    1  MOL1       -0.3460
     15  C8        11.7170  -17.3800   -8.0920 C.2     1  MOL1        0.2580
     16  O9        12.2930  -18.0160   -9.0140 O.2     1  MOL1       -0.2710
     17 C10        12.5440  -16.6720   -7.0610 C.3     1  MOL1        0.1670
     18 O11        13.7070  -16.1040   -7.6590 O.3     1  MOL1       -0.4800
     19 C12        14.9490  -16.1120   -7.0180 C.ar    1  MOL1        0.1660
     20 C13        16.0850  -16.6840   -7.6350 C.ar    1  MOL1        0.0120
     21 C21        17.3300  -16.6000   -6.9900 C.ar    1  MOL1       -0.0540
     22 C22        17.4380  -16.0030   -5.7340 C.ar    1  MOL1       -0.0580
     23 C23        16.3060  -15.4840   -5.1050 C.ar    1  MOL1       -0.0160
     24 C24        15.0520  -15.5390   -5.7400 C.ar    1  MOL1        0.1610
     25 C14        15.9970  -17.3860   -8.9720 C.3     1  MOL1        0.0280
     26 N15        17.3320  -17.8550   -9.3970 N.3     1  MOL1       -0.2870
     27 C16        17.8420  -17.0750  -10.5380 C.3     1  MOL1        0.0640
     28 C17        17.7880  -18.2670  -11.4720 C.3     1  MOL1        0.2720
     29 F18        19.0340  -18.7000  -11.8920 F       1  MOL1       -0.2040
     30 F19        16.8660  -18.1320  -12.4960 F       1  MOL1       -0.2040
     31 C20        17.2530  -19.0330  -10.2780 C.3     1  MOL1        0.0640
     32 O25        13.8900  -15.0300   -5.1420 O.3     1  MOL1       -0.4930
     33 C26        13.8790  -14.0600   -4.1000 C.3     1  MOL1        0.0780
@<TRIPOS>BOND
     1    30    28    1
     2    29    28    1
     3     6     5    1
     4    28    27    1
     5    28    31    1
     6    10    11    1
     7    13    12    2
     8    27    26    1
     9    31    26    1
    10     7     5   ar
    11     7     1   ar
    12     5     4   ar
    13    12    11   am
    14    12     9    1
    15    26    25    1
    16     1     8    1
    17     1     2   ar
    18     4     3   ar
    19     8     9    1
    20     8    14    1
    21    16    15    2
    22    25    20    1
    23    15    14   am
    24    15    17    1
    25     2     3   ar
    26    18    17    1
    27    18    19    1
    28    20    19   ar
    29    20    21   ar
    30    19    24   ar
    31    21    22   ar
    32    24    32    1
    33    24    23   ar
    34    22    23   ar
    35    32    33    1
