@<TRIPOS>MOLECULE
L3024_0_out.pdbqt
 33 35 0 0 0
SMALL
GASTEIGER

@<TRIPOS>ATOM
      1 C27        14.6990  -17.1530   -7.2840 C.ar    1  MOL1       -0.0240
      2 C28        14.6810  -16.1500   -8.2700 C.ar    1  MOL1       -0.0570
      3 C29        14.5810  -14.8020   -7.9070 C.ar    1  MOL1       -0.0610
      4 C30        14.4990  -14.4440   -6.5590 C.ar    1  MOL1       -0.0480
      5 C31        14.5190  -15.4310   -5.5680 C.ar    1  MOL1        0.0180
      6 Br32       14.4290  -14.9380   -3.7210 Br      1  MOL1       -0.0510
      7 C33        14.6130  -16.7800   -5.9270 C.ar    1  MOL1       -0.0430
      8  C6        14.7330  -18.6110   -7.6880 C.3     1  MOL1        0.0630
      9  C5        16.0700  -18.9350   -8.3790 C.3     1  MOL1        0.0510
     10  C1        16.2890  -22.4410   -6.6950 C.3     1  MOL1        0.0060
     11  N2        15.8300  -21.1160   -7.0850 N.am    1  MOL1       -0.3590
     12  C3        16.5760  -20.2940   -7.9880 C.2     1  MOL1        0.2220
     13  O4        17.6680  -20.7080   -8.4660 O.2     1  MOL1       -0.2750
     14  N7        13.6060  -18.9200   -8.5740 N.am    1  MOL1       -0.3460
     15  C8        12.4240  -19.5790   -8.1130 C.2     1  MOL1        0.2580
     16  O9        12.3210  -19.9300   -6.9080 O.2     1  MOL1       -0.2710
     17 C10        11.2890  -19.8470   -9.0560 C.3     1  MOL1        0.1670
     18 O11        10.0460  -19.5020   -8.4500 O.3     1  MOL1       -0.4800
     19 C12         9.2720  -18.4310   -8.9050 C.ar    1  MOL1        0.1660
     20 C13         8.4740  -18.5470  -10.0660 C.ar    1  MOL1        0.0120
     21 C21         7.6510  -17.4720  -10.4420 C.ar    1  MOL1       -0.0540
     22 C22         7.6560  -16.2860   -9.7080 C.ar    1  MOL1       -0.0580
     23 C23         8.4810  -16.1560   -8.5910 C.ar    1  MOL1       -0.0160
     24 C24         9.2990  -17.2270   -8.1840 C.ar    1  MOL1        0.1610
     25 C14         8.4830  -19.7970  -10.9180 C.3     1  MOL1        0.0280
     26 N15         7.1030  -20.2630  -11.1660 N.3     1  MOL1       -0.2870
     27 C16         6.3690  -20.4740   -9.9070 C.3     1  MOL1        0.0640
     28 C17         6.2730  -21.9710  -10.1290 C.3     1  MOL1        0.2720
     29 F18         4.9810  -22.4190  -10.3410 F       1  MOL1       -0.2040
     30 F19         6.9810  -22.7190   -9.2030 F       1  MOL1       -0.2040
     31 C20         7.0420  -21.7140  -11.4100 C.3     1  MOL1        0.0640
     32 O25        10.1440  -17.1360   -7.0680 O.3     1  MOL1       -0.4930
     33 C26        11.1970  -16.1880   -6.9300 C.3     1  MOL1        0.0780
@<TRIPOS>BOND
     1    31    26    1
     2    31    28    1
     3    26    25    1
     4    26    27    1
     5    25    20    1
     6    21    20   ar
     7    21    22   ar
     8    29    28    1
     9    28    27    1
    10    28    30    1
    11    20    19   ar
    12    22    23   ar
    13    17    18    1
    14    17    15    1
    15    19    18    1
    16    19    24   ar
    17    23    24   ar
    18    14    15   am
    19    14     8    1
    20    13    12    2
    21     9    12    1
    22     9     8    1
    23     2     3   ar
    24     2     1   ar
    25    24    32    1
    26    15    16    2
    27    12    11   am
    28     3     4   ar
    29     8     1    1
    30     1     7   ar
    31    11    10    1
    32    32    33    1
    33     4     5   ar
    34     7     5   ar
    35     5     6    1
