@<TRIPOS>MOLECULE
L3024_0_out.pdbqt
 33 35 0 0 0
SMALL
GASTEIGER

@<TRIPOS>ATOM
      1 C27         9.4400  -18.1690   -9.2230 C.ar    1  MOL1       -0.0240
      2 C28         9.0770  -17.1820   -8.2880 C.ar    1  MOL1       -0.0570
      3 C29         8.0980  -16.2340   -8.6050 C.ar    1  MOL1       -0.0610
      4 C30         7.4740  -16.2610   -9.8560 C.ar    1  MOL1       -0.0480
      5 C31         7.8240  -17.2400  -10.7930 C.ar    1  MOL1        0.0180
      6 Br32        6.9540  -17.2900  -12.4960 Br      1  MOL1       -0.0510
      7 C33         8.8060  -18.1860  -10.4820 C.ar    1  MOL1       -0.0430
      8  C6        10.5510  -19.1460   -8.9000 C.3     1  MOL1        0.0630
      9  C5         9.9810  -20.3610   -8.1460 C.3     1  MOL1        0.0510
     10  C1         8.5120  -22.4880  -11.0600 C.3     1  MOL1        0.0060
     11  N2         9.4300  -21.7310  -10.2210 N.am    1  MOL1       -0.3590
     12  C3         9.0070  -21.1280   -8.9930 C.2     1  MOL1        0.2220
     13  O4         7.8100  -21.2400   -8.6130 O.2     1  MOL1       -0.2750
     14  N7        11.5920  -18.4860   -8.1040 N.am    1  MOL1       -0.3460
     15  C8        12.9160  -18.2730   -8.5960 C.2     1  MOL1        0.2580
     16  O9        13.2360  -18.6640   -9.7510 O.2     1  MOL1       -0.2710
     17 C10        13.9350  -17.5700   -7.7510 C.3     1  MOL1        0.1670
     18 O11        14.1500  -18.2800   -6.5340 O.3     1  MOL1       -0.4800
     19 C12        15.4090  -18.3580   -5.9330 C.ar    1  MOL1        0.1660
     20 C13        15.7860  -17.4620   -4.9060 C.ar    1  MOL1        0.0120
     21 C21        17.0310  -17.6260   -4.2760 C.ar    1  MOL1       -0.0540
     22 C22        17.9060  -18.6310   -4.6890 C.ar    1  MOL1       -0.0580
     23 C23        17.5530  -19.4820   -5.7360 C.ar    1  MOL1       -0.0160
     24 C24        16.3040  -19.3490   -6.3690 C.ar    1  MOL1        0.1610
     25 C14        14.8860  -16.3280   -4.4680 C.3     1  MOL1        0.0280
     26 N15        15.2590  -15.8660   -3.1160 N.3     1  MOL1       -0.2870
     27 C16        14.0770  -15.4550   -2.3390 C.3     1  MOL1        0.0640
     28 C17        14.5150  -14.0050   -2.3010 C.3     1  MOL1        0.2720
     29 F18        14.8470  -13.5560   -1.0350 F       1  MOL1       -0.2040
     30 F19        13.6750  -13.1500   -2.9970 F       1  MOL1       -0.2040
     31 C20        15.7110  -14.4640   -3.1130 C.3     1  MOL1        0.0640
     32 O25        15.9110  -20.1840   -7.4260 O.3     1  MOL1       -0.4930
     33 C26        16.8090  -20.9370   -8.2340 C.3     1  MOL1        0.0780
@<TRIPOS>BOND
     1     6     5    1
     2    10    11    1
     3     5     7   ar
     4     5     4   ar
     5     7     1   ar
     6    11    12   am
     7     4     3   ar
     8    16    15    2
     9     1     8    1
    10     1     2   ar
    11    12    13    2
    12    12     9    1
    13     8     9    1
    14     8    14    1
    15     3     2   ar
    16    15    14   am
    17    15    17    1
    18    33    32    1
    19    17    18    1
    20    32    24    1
    21    18    19    1
    22    24    19   ar
    23    24    23   ar
    24    19    20   ar
    25    23    22   ar
    26    20    25    1
    27    20    21   ar
    28    22    21   ar
    29    25    26    1
    30    26    31    1
    31    26    27    1
    32    31    28    1
    33    30    28    1
    34    27    28    1
    35    28    29    1
