@<TRIPOS>MOLECULE
L3024_0_out.pdbqt
 33 35 0 0 0
SMALL
GASTEIGER

@<TRIPOS>ATOM
      1 C27         7.4620  -17.5240  -10.0810 C.ar    1  MOL1       -0.0240
      2 C28         7.8130  -18.2570  -11.2290 C.ar    1  MOL1       -0.0570
      3 C29         7.4080  -17.8250  -12.4960 C.ar    1  MOL1       -0.0610
      4 C30         6.6500  -16.6590  -12.6310 C.ar    1  MOL1       -0.0480
      5 C31         6.2960  -15.9180  -11.4970 C.ar    1  MOL1        0.0180
      6 Br32        5.2760  -14.3100  -11.6840 Br      1  MOL1       -0.0510
      7 C33         6.6940  -16.3500  -10.2280 C.ar    1  MOL1       -0.0430
      8  C6         7.8410  -18.0370   -8.7090 C.3     1  MOL1        0.0630
      9  C5         9.3360  -18.4040   -8.6780 C.3     1  MOL1        0.0510
     10  C1        12.3600  -16.5410   -7.0800 C.3     1  MOL1        0.0060
     11  N2        11.5440  -17.5500   -7.7400 N.am    1  MOL1       -0.3590
     12  C3        10.1480  -17.3490   -7.9850 C.2     1  MOL1        0.2220
     13  O4         9.5900  -16.2770   -7.6220 O.2     1  MOL1       -0.2750
     14  N7         7.0170  -19.1970   -8.3540 N.am    1  MOL1       -0.3460
     15  C8         5.7320  -19.0690   -7.7430 C.2     1  MOL1        0.2580
     16  O9         5.2650  -17.9300   -7.4760 O.2     1  MOL1       -0.2710
     17 C10         4.9190  -20.2880   -7.4250 C.3     1  MOL1        0.1670
     18 O11         3.6500  -20.2250   -8.0720 O.3     1  MOL1       -0.4800
     19 C12         3.1400  -21.2950   -8.8120 C.ar    1  MOL1        0.1660
     20 C13         3.9110  -21.9210   -9.8180 C.ar    1  MOL1        0.0120
     21 C21         3.3900  -23.0430  -10.4820 C.ar    1  MOL1       -0.0540
     22 C22         2.1080  -23.5070  -10.1890 C.ar    1  MOL1       -0.0580
     23 C23         1.3290  -22.8570   -9.2310 C.ar    1  MOL1       -0.0160
     24 C24         1.8380  -21.7430   -8.5380 C.ar    1  MOL1        0.1610
     25 C14         5.2840  -21.4130  -10.2010 C.3     1  MOL1        0.0280
     26 N15         6.1940  -22.5440  -10.4740 N.3     1  MOL1       -0.2870
     27 C16         7.3320  -22.5620   -9.5390 C.3     1  MOL1        0.0640
     28 C17         8.3350  -22.2710  -10.6380 C.3     1  MOL1        0.2720
     29 F18         9.2050  -23.3180  -10.8860 F       1  MOL1       -0.2040
     30 F19         8.9580  -21.0400  -10.5120 F       1  MOL1       -0.2040
     31 C20         7.1370  -22.2480  -11.5670 C.3     1  MOL1        0.0640
     32 O25         1.0870  -21.0620   -7.5690 O.3     1  MOL1       -0.4930
     33 C26        -0.1840  -20.4660   -7.8070 C.3     1  MOL1        0.0780
@<TRIPOS>BOND
     1     4     3   ar
     2     4     5   ar
     3     3     2   ar
     4     6     5    1
     5    31    28    1
     6    31    26    1
     7     5     7   ar
     8     2     1   ar
     9    29    28    1
    10    28    30    1
    11    28    27    1
    12    21    22   ar
    13    21    20   ar
    14    26    25    1
    15    26    27    1
    16     7     1   ar
    17    25    20    1
    18    22    23   ar
    19     1     8    1
    20    20    19   ar
    21    23    24   ar
    22    19    24   ar
    23    19    18    1
    24     8     9    1
    25     8    14    1
    26     9    12    1
    27    24    32    1
    28    14    15   am
    29    18    17    1
    30    12    11   am
    31    12    13    2
    32    33    32    1
    33    15    16    2
    34    15    17    1
    35    11    10    1
