@<TRIPOS>MOLECULE
L3024_0_out.pdbqt
 33 35 0 0 0
SMALL
GASTEIGER

@<TRIPOS>ATOM
      1 C27        14.6040  -18.3980   -6.5260 C.ar    1  MOL1       -0.0240
      2 C28        15.5550  -18.3940   -5.4890 C.ar    1  MOL1       -0.0570
      3 C29        16.2390  -17.2180   -5.1620 C.ar    1  MOL1       -0.0610
      4 C30        15.9820  -16.0380   -5.8650 C.ar    1  MOL1       -0.0480
      5 C31        15.0360  -16.0280   -6.8960 C.ar    1  MOL1        0.0180
      6 Br32       14.6680  -14.4070   -7.8440 Br      1  MOL1       -0.0510
      7 C33        14.3530  -17.2030   -7.2300 C.ar    1  MOL1       -0.0430
      8  C6        13.9210  -19.6900   -6.9220 C.3     1  MOL1        0.0630
      9  C5        14.3870  -20.1240   -8.3230 C.3     1  MOL1        0.0510
     10  C1        17.2510  -22.5500   -7.2790 C.3     1  MOL1        0.0060
     11  N2        15.9670  -21.8660   -7.3450 N.am    1  MOL1       -0.3590
     12  C3        15.7250  -20.8030   -8.2730 C.2     1  MOL1        0.2220
     13  O4        16.6380  -20.4300   -9.0590 O.2     1  MOL1       -0.2750
     14  N7        12.4640  -19.5250   -6.8900 N.am    1  MOL1       -0.3460
     15  C8        11.5620  -20.6170   -7.0800 C.2     1  MOL1        0.2580
     16  O9        12.0050  -21.7770   -7.2950 O.2     1  MOL1       -0.2710
     17 C10        10.0810  -20.3980   -7.0110 C.3     1  MOL1        0.1670
     18 O11         9.5550  -20.1340   -8.3100 O.3     1  MOL1       -0.4800
     19 C12         8.7600  -19.0150   -8.5750 C.ar    1  MOL1        0.1660
     20 C13         7.3490  -19.0980   -8.5520 C.ar    1  MOL1        0.0120
     21 C21         6.5910  -17.9320   -8.7460 C.ar    1  MOL1       -0.0540
     22 C22         7.2190  -16.7140   -9.0050 C.ar    1  MOL1       -0.0580
     23 C23         8.6100  -16.6440   -9.0770 C.ar    1  MOL1       -0.0160
     24 C24         9.3920  -17.7950   -8.8670 C.ar    1  MOL1        0.1610
     25 C14         6.6320  -20.4110   -8.3270 C.3     1  MOL1        0.0280
     26 N15         5.1790  -20.2470   -8.5340 N.3     1  MOL1       -0.2870
     27 C16         4.4560  -20.1510   -7.2540 C.3     1  MOL1        0.0640
     28 C17         3.7330  -21.4640   -7.4800 C.3     1  MOL1        0.2720
     29 F18         2.3670  -21.3220   -7.6550 F       1  MOL1       -0.2040
     30 F19         4.0830  -22.4560   -6.5790 F       1  MOL1       -0.2040
     31 C20         4.5050  -21.5330   -8.7830 C.3     1  MOL1        0.0640
     32 O25        10.7920  -17.7670   -8.9310 O.3     1  MOL1       -0.4930
     33 C26        11.5540  -18.1450  -10.0730 C.3     1  MOL1        0.0780
@<TRIPOS>BOND
     1    33    32    1
     2    23    22   ar
     3    23    24   ar
     4    13    12    2
     5    22    21   ar
     6    32    24    1
     7    24    19   ar
     8    31    26    1
     9    31    28    1
    10    21    20   ar
    11    19    20   ar
    12    19    18    1
    13    20    25    1
    14    26    25    1
    15    26    27    1
    16     9    12    1
    17     9     8    1
    18    18    17    1
    19    12    11   am
    20     6     5    1
    21    29    28    1
    22    28    27    1
    23    28    30    1
    24    11    10    1
    25    16    15    2
    26     7     5   ar
    27     7     1   ar
    28    15    17    1
    29    15    14   am
    30     8    14    1
    31     8     1    1
    32     5     4   ar
    33     1     2   ar
    34     4     3   ar
    35     2     3   ar
