@<TRIPOS>MOLECULE
L3024_0_out.pdbqt
 33 35 0 0 0
SMALL
GASTEIGER

@<TRIPOS>ATOM
      1 C27         6.7650  -17.2920   -8.1380 C.ar    1  MOL1       -0.0240
      2 C28         6.1910  -16.1890   -7.4810 C.ar    1  MOL1       -0.0570
      3 C29         4.9480  -16.3100   -6.8490 C.ar    1  MOL1       -0.0610
      4 C30         4.2680  -17.5310   -6.8690 C.ar    1  MOL1       -0.0480
      5 C31         4.8290  -18.6370   -7.5160 C.ar    1  MOL1        0.0180
      6 Br32        3.9070  -20.3130   -7.5230 Br      1  MOL1       -0.0510
      7 C33         6.0690  -18.5180   -8.1530 C.ar    1  MOL1       -0.0430
      8  C6         8.0750  -17.1340   -8.8800 C.3     1  MOL1        0.0630
      9  C5         7.8130  -17.0240  -10.3930 C.3     1  MOL1        0.0510
     10  C1         7.1620  -20.6510  -11.6580 C.3     1  MOL1        0.0060
     11  N2         7.0070  -19.3650  -10.9940 N.am    1  MOL1       -0.3590
     12  C3         8.0070  -18.3440  -11.0820 C.2     1  MOL1        0.2220
     13  O4         9.0610  -18.5480  -11.7450 O.2     1  MOL1       -0.2750
     14  N7         8.9630  -18.2640   -8.5900 N.am    1  MOL1       -0.3460
     15  C8        10.2080  -18.1080   -7.9060 C.2     1  MOL1        0.2580
     16  O9        10.5890  -16.9660   -7.5330 O.2     1  MOL1       -0.2710
     17 C10        11.0670  -19.3010   -7.6110 C.3     1  MOL1        0.1670
     18 O11        12.3370  -18.8910   -7.1100 O.3     1  MOL1       -0.4800
     19 C12        13.5260  -19.1670   -7.7900 C.ar    1  MOL1        0.1660
     20 C13        14.3040  -18.1300   -8.3550 C.ar    1  MOL1        0.0120
     21 C21        15.5310  -18.4460   -8.9600 C.ar    1  MOL1       -0.0540
     22 C22        15.9580  -19.7710   -9.0470 C.ar    1  MOL1       -0.0580
     23 C23        15.1650  -20.7980   -8.5330 C.ar    1  MOL1       -0.0160
     24 C24        13.9410  -20.5040   -7.9050 C.ar    1  MOL1        0.1610
     25 C14        13.8490  -16.6880   -8.3270 C.3     1  MOL1        0.0280
     26 N15        14.6290  -15.9200   -7.3360 N.3     1  MOL1       -0.2870
     27 C16        14.3360  -16.3550   -5.9600 C.3     1  MOL1        0.0640
     28 C17        13.7010  -15.0280   -5.5970 C.3     1  MOL1        0.2720
     29 F18        14.4150  -14.3100   -4.6530 F       1  MOL1       -0.2040
     30 F19        12.3440  -15.1130   -5.3290 F       1  MOL1       -0.2040
     31 C20        14.0080  -14.6210   -7.0250 C.3     1  MOL1        0.0640
     32 O25        13.1140  -21.5070   -7.3770 O.3     1  MOL1       -0.4930
     33 C26        13.0810  -22.8520   -7.8430 C.3     1  MOL1        0.0780
@<TRIPOS>BOND
     1    13    12    2
     2    10    11    1
     3    12    11   am
     4    12     9    1
     5     9     8    1
     6    22    21   ar
     7    22    23   ar
     8    21    20   ar
     9     8    14    1
    10     8     1    1
    11    14    15   am
    12    23    24   ar
    13    20    25    1
    14    20    19   ar
    15    25    26    1
    16     7     1   ar
    17     7     5   ar
    18     1     2   ar
    19    15    17    1
    20    15    16    2
    21    24    19   ar
    22    24    32    1
    23    33    32    1
    24    19    18    1
    25    17    18    1
    26     6     5    1
    27     5     4   ar
    28     2     3   ar
    29    26    31    1
    30    26    27    1
    31    31    28    1
    32     4     3   ar
    33    27    28    1
    34    28    30    1
    35    28    29    1
