@<TRIPOS>MOLECULE
L3024_0_out.pdbqt
 33 35 0 0 0
SMALL
GASTEIGER

@<TRIPOS>ATOM
      1 C27        13.7500  -18.5800   -8.2540 C.ar    1  MOL1       -0.0240
      2 C28        14.5820  -19.2200   -9.1910 C.ar    1  MOL1       -0.0570
      3 C29        15.2800  -20.3800   -8.8420 C.ar    1  MOL1       -0.0610
      4 C30        15.1560  -20.9130   -7.5550 C.ar    1  MOL1       -0.0480
      5 C31        14.3300  -20.2880   -6.6140 C.ar    1  MOL1        0.0180
      6 Br32       14.1440  -21.0300   -4.8610 Br      1  MOL1       -0.0510
      7 C33        13.6350  -19.1240   -6.9590 C.ar    1  MOL1       -0.0430
      8  C6        13.0560  -17.2850   -8.6170 C.3     1  MOL1        0.0630
      9  C5        13.9160  -16.0850   -8.1830 C.3     1  MOL1        0.0510
     10  C1        14.4780  -15.7540   -4.3420 C.3     1  MOL1        0.0060
     11  N2        14.6640  -16.0840   -5.7480 N.am    1  MOL1       -0.3590
     12  C3        13.6900  -15.7400   -6.7390 C.2     1  MOL1        0.2220
     13  O4        12.6330  -15.1390   -6.4050 O.2     1  MOL1       -0.2750
     14  N7        11.7310  -17.2260   -7.9890 N.am    1  MOL1       -0.3460
     15  C8        10.5480  -17.6870   -8.6450 C.2     1  MOL1        0.2580
     16  O9        10.6110  -18.1580   -9.8110 O.2     1  MOL1       -0.2710
     17 C10         9.2220  -17.6270   -7.9470 C.3     1  MOL1        0.1670
     18 O11         8.1810  -18.0680   -8.8150 O.3     1  MOL1       -0.4800
     19 C12         7.1710  -18.9310   -8.3810 C.ar    1  MOL1        0.1660
     20 C13         7.3750  -20.3290   -8.3340 C.ar    1  MOL1        0.0120
     21 C21         6.3610  -21.1530   -7.8180 C.ar    1  MOL1       -0.0540
     22 C22         5.1480  -20.6050   -7.4010 C.ar    1  MOL1       -0.0580
     23 C23         4.9300  -19.2300   -7.4950 C.ar    1  MOL1       -0.0160
     24 C24         5.9390  -18.3830   -7.9910 C.ar    1  MOL1        0.1610
     25 C14         8.6560  -20.9650   -8.8270 C.3     1  MOL1        0.0280
     26 N15         8.6220  -21.1230  -10.2950 N.3     1  MOL1       -0.2870
     27 C16         7.2710  -20.8950  -10.8330 C.3     1  MOL1        0.0640
     28 C17         7.1250  -22.3370  -11.2770 C.3     1  MOL1        0.2720
     29 F18         7.0710  -22.4930  -12.6510 F       1  MOL1       -0.2040
     30 F19         6.1410  -23.0340  -10.5940 F       1  MOL1       -0.2040
     31 C20         8.5130  -22.5350  -10.7000 C.3     1  MOL1        0.0640
     32 O25         5.7590  -16.9970   -8.1030 O.3     1  MOL1       -0.4930
     33 C26         5.7870  -16.0900   -7.0060 C.3     1  MOL1        0.0780
@<TRIPOS>BOND
     1    29    28    1
     2    28    27    1
     3    28    31    1
     4    28    30    1
     5    27    26    1
     6    31    26    1
     7    26    25    1
     8    16    15    2
     9     2     3   ar
    10     2     1   ar
    11     3     4   ar
    12    25    20    1
    13    18    19    1
    14    18    17    1
    15    15    14   am
    16    15    17    1
    17     8     1    1
    18     8     9    1
    19     8    14    1
    20    19    20   ar
    21    19    24   ar
    22    20    21   ar
    23     1     7   ar
    24     9    12    1
    25    32    24    1
    26    32    33    1
    27    24    23   ar
    28    21    22   ar
    29     4     5   ar
    30    23    22   ar
    31     7     5   ar
    32    12    13    2
    33    12    11   am
    34     5     6    1
    35    11    10    1
