@<TRIPOS>MOLECULE
L3024_0_out.pdbqt
 33 35 0 0 0
SMALL
GASTEIGER

@<TRIPOS>ATOM
      1 C27         4.4240  -15.0270   -9.7480 C.ar    1  MOL1       -0.0240
      2 C28         4.0950  -15.4730   -8.4540 C.ar    1  MOL1       -0.0570
      3 C29         2.8540  -15.1570   -7.8920 C.ar    1  MOL1       -0.0610
      4 C30         1.9300  -14.3950   -8.6120 C.ar    1  MOL1       -0.0480
      5 C31         2.2440  -13.9480   -9.9010 C.ar    1  MOL1        0.0180
      6 Br32        0.9700  -12.9240  -10.8950 Br      1  MOL1       -0.0510
      7 C33         3.4860  -14.2570  -10.4650 C.ar    1  MOL1       -0.0430
      8  C6         5.7960  -15.3110  -10.3200 C.3     1  MOL1        0.0630
      9  C5         5.7580  -15.2070  -11.8560 C.3     1  MOL1        0.0510
     10  C1         4.4740  -12.1550  -13.9070 C.3     1  MOL1        0.0060
     11  N2         4.7180  -13.5150  -13.4510 N.am    1  MOL1       -0.3590
     12  C3         5.5330  -13.7930  -12.3070 C.2     1  MOL1        0.2220
     13  O4         6.0670  -12.8470  -11.6660 O.2     1  MOL1       -0.2750
     14  N7         6.2560  -16.6400   -9.9040 N.am    1  MOL1       -0.3460
     15  C8         7.4690  -16.8400   -9.1750 C.2     1  MOL1        0.2580
     16  O9         8.1980  -15.8580   -8.8720 O.2     1  MOL1       -0.2710
     17 C10         7.8790  -18.2180   -8.7500 C.3     1  MOL1        0.1670
     18 O11         7.2640  -19.2000   -9.5810 O.3     1  MOL1       -0.4800
     19 C12         7.8180  -20.4700   -9.7630 C.ar    1  MOL1        0.1660
     20 C13         7.2940  -21.5990   -9.0930 C.ar    1  MOL1        0.0120
     21 C21         7.8310  -22.8680   -9.3660 C.ar    1  MOL1       -0.0540
     22 C22         8.9010  -23.0090  -10.2500 C.ar    1  MOL1       -0.0580
     23 C23         9.4500  -21.8870  -10.8710 C.ar    1  MOL1       -0.0160
     24 C24         8.9150  -20.6080  -10.6290 C.ar    1  MOL1        0.1610
     25 C14         6.1700  -21.4790   -8.0880 C.3     1  MOL1        0.0280
     26 N15         4.9760  -20.8800   -8.7190 N.3     1  MOL1       -0.2870
     27 C16         4.0500  -20.3310   -7.7140 C.3     1  MOL1        0.0640
     28 C17         2.9740  -21.3470   -8.0440 C.3     1  MOL1        0.2720
     29 F18         1.8430  -20.7930   -8.6160 F       1  MOL1       -0.2040
     30 F19         2.7050  -22.2300   -7.0100 F       1  MOL1       -0.2040
     31 C20         3.9610  -21.8920   -9.0580 C.3     1  MOL1        0.0640
     32 O25         9.4380  -19.4550  -11.2320 O.3     1  MOL1       -0.4930
     33 C26        10.6930  -18.8710  -10.9000 C.3     1  MOL1        0.0780
@<TRIPOS>BOND
     1    10    11    1
     2    11    12   am
     3    12     9    1
     4    12    13    2
     5     9     8    1
     6    32    33    1
     7    32    24    1
     8     6     5    1
     9    23    24   ar
    10    23    22   ar
    11    24    19   ar
    12     7     5   ar
    13     7     1   ar
    14     8    14    1
    15     8     1    1
    16    22    21   ar
    17    14    15   am
    18     5     4   ar
    19    19    18    1
    20    19    20   ar
    21     1     2   ar
    22    18    17    1
    23    21    20   ar
    24    15    16    2
    25    15    17    1
    26    20    25    1
    27    31    26    1
    28    31    28    1
    29    26    25    1
    30    26    27    1
    31    29    28    1
    32     4     3   ar
    33     2     3   ar
    34    28    27    1
    35    28    30    1
