@<TRIPOS>MOLECULE
L3024_0_out.pdbqt
 33 35 0 0 0
SMALL
GASTEIGER

@<TRIPOS>ATOM
      1 C27         8.3150  -20.2140  -10.1500 C.ar    1  MOL1       -0.0240
      2 C28         6.9610  -20.5320  -10.3580 C.ar    1  MOL1       -0.0570
      3 C29         6.5330  -21.8640  -10.3200 C.ar    1  MOL1       -0.0610
      4 C30         7.4510  -22.8890  -10.0750 C.ar    1  MOL1       -0.0480
      5 C31         8.8000  -22.5850   -9.8620 C.ar    1  MOL1        0.0180
      6 Br32       10.0520  -23.9870   -9.5040 Br      1  MOL1       -0.0510
      7 C33         9.2330  -21.2560   -9.9050 C.ar    1  MOL1       -0.0430
      8  C6         8.7820  -18.7790  -10.2640 C.3     1  MOL1        0.0630
      9  C5         8.0630  -18.0830  -11.4340 C.3     1  MOL1        0.0510
     10  C1         5.7280  -14.9650  -11.3990 C.3     1  MOL1        0.0060
     11  N2         6.3940  -16.1950  -11.8030 N.am    1  MOL1       -0.3590
     12  C3         7.4030  -16.8080  -10.9940 C.2     1  MOL1        0.2220
     13  O4         7.7440  -16.2800   -9.9000 O.2     1  MOL1       -0.2750
     14  N7        10.2360  -18.7310  -10.4490 N.am    1  MOL1       -0.3460
     15  C8        11.1210  -18.2050   -9.4580 C.2     1  MOL1        0.2580
     16  O9        10.6640  -17.7490   -8.3760 O.2     1  MOL1       -0.2710
     17 C10        12.6030  -18.2040   -9.6870 C.3     1  MOL1        0.1670
     18 O11        13.2990  -18.0600   -8.4520 O.3     1  MOL1       -0.4800
     19 C12        14.4130  -17.2260   -8.3220 C.ar    1  MOL1        0.1660
     20 C13        15.6800  -17.6170   -8.8140 C.ar    1  MOL1        0.0120
     21 C21        16.7540  -16.7150   -8.7320 C.ar    1  MOL1       -0.0540
     22 C22        16.5870  -15.4680   -8.1300 C.ar    1  MOL1       -0.0580
     23 C23        15.3490  -15.1050   -7.6000 C.ar    1  MOL1       -0.0160
     24 C24        14.2530  -15.9830   -7.6880 C.ar    1  MOL1        0.1610
     25 C14        15.9110  -18.9810   -9.4250 C.3     1  MOL1        0.0280
     26 N15        16.1140  -19.9920   -8.3680 N.3     1  MOL1       -0.2870
     27 C16        17.4780  -20.5440   -8.4000 C.3     1  MOL1        0.0640
     28 C17        16.9890  -21.9250   -8.7910 C.3     1  MOL1        0.2720
     29 F18        17.1940  -22.8840   -7.8150 F       1  MOL1       -0.2040
     30 F19        17.3880  -22.3200  -10.0580 F       1  MOL1       -0.2040
     31 C20        15.6010  -21.3160   -8.7600 C.3     1  MOL1        0.0640
     32 O25        12.9930  -15.6570   -7.1670 O.3     1  MOL1       -0.4930
     33 C26        12.7690  -15.1560   -5.8530 C.3     1  MOL1        0.0780
@<TRIPOS>BOND
     1    11    10    1
     2    11    12   am
     3     9    12    1
     4     9     8    1
     5    12    13    2
     6    14     8    1
     7    14    15   am
     8     2     3   ar
     9     2     1   ar
    10     3     4   ar
    11     8     1    1
    12     1     7   ar
    13     4     5   ar
    14    30    28    1
    15     7     5   ar
    16     5     6    1
    17    17    15    1
    18    17    18    1
    19    15    16    2
    20    25    20    1
    21    25    26    1
    22    20    21   ar
    23    20    19   ar
    24    28    31    1
    25    28    27    1
    26    28    29    1
    27    31    26    1
    28    21    22   ar
    29    18    19    1
    30    27    26    1
    31    19    24   ar
    32    22    23   ar
    33    24    23   ar
    34    24    32    1
    35    32    33    1
