@<TRIPOS>MOLECULE
L3024_0_out.pdbqt
 33 35 0 0 0
SMALL
GASTEIGER

@<TRIPOS>ATOM
      1 C27         6.0310  -20.9450   -8.9480 C.ar    1  MOL1       -0.0240
      2 C28         5.9650  -20.8130   -7.5490 C.ar    1  MOL1       -0.0570
      3 C29         4.8080  -21.1860   -6.8560 C.ar    1  MOL1       -0.0610
      4 C30         3.7080  -21.6940   -7.5520 C.ar    1  MOL1       -0.0480
      5 C31         3.7610  -21.8350   -8.9430 C.ar    1  MOL1        0.0180
      6 Br32        2.2630  -22.5510   -9.8920 Br      1  MOL1       -0.0510
      7 C33         4.9140  -21.4570   -9.6390 C.ar    1  MOL1       -0.0430
      8  C6         7.2580  -20.4710   -9.6960 C.3     1  MOL1        0.0630
      9  C5         7.4880  -21.3480  -10.9400 C.3     1  MOL1        0.0510
     10  C1         9.3180  -24.4930   -9.5500 C.3     1  MOL1        0.0060
     11  N2         8.3120  -23.4710   -9.7990 N.am    1  MOL1       -0.3590
     12  C3         8.5500  -22.3810  -10.6970 C.2     1  MOL1        0.2220
     13  O4         9.6570  -22.2840  -11.2940 O.2     1  MOL1       -0.2750
     14  N7         8.4330  -20.5030   -8.8180 N.am    1  MOL1       -0.3460
     15  C8         9.3550  -19.4140   -8.7280 C.2     1  MOL1        0.2580
     16  O9         9.1850  -18.3790   -9.4240 O.2     1  MOL1       -0.2710
     17 C10        10.5250  -19.4880   -7.7940 C.3     1  MOL1        0.1670
     18 O11        11.7240  -19.7590   -8.5170 O.3     1  MOL1       -0.4800
     19 C12        12.9190  -20.0910   -7.8730 C.ar    1  MOL1        0.1660
     20 C13        13.9200  -19.1200   -7.6440 C.ar    1  MOL1        0.0120
     21 C21        15.0710  -19.4800   -6.9230 C.ar    1  MOL1       -0.0540
     22 C22        15.2480  -20.7900   -6.4790 C.ar    1  MOL1       -0.0580
     23 C23        14.2820  -21.7590   -6.7500 C.ar    1  MOL1       -0.0160
     24 C24        13.1110  -21.4180   -7.4530 C.ar    1  MOL1        0.1610
     25 C14        13.7870  -17.7030   -8.1550 C.3     1  MOL1        0.0280
     26 N15        14.5350  -16.7690   -7.2880 N.3     1  MOL1       -0.2870
     27 C16        13.8850  -16.6090   -5.9770 C.3     1  MOL1        0.0640
     28 C17        13.5520  -15.1530   -6.2380 C.3     1  MOL1        0.2720
     29 F18        14.2330  -14.2720   -5.4160 F       1  MOL1       -0.2040
     30 F19        12.1940  -14.9000   -6.3300 F       1  MOL1       -0.2040
     31 C20        14.2180  -15.3610   -7.5840 C.3     1  MOL1        0.0640
     32 O25        12.1160  -22.3620   -7.7470 O.3     1  MOL1       -0.4930
     33 C26        12.3020  -23.7720   -7.6900 C.3     1  MOL1        0.0780
@<TRIPOS>BOND
     1    13    12    2
     2     9    12    1
     3     9     8    1
     4    12    11   am
     5     6     5    1
     6    11    10    1
     7     8     1    1
     8     8    14    1
     9     7     1   ar
    10     7     5   ar
    11    16    15    2
    12     1     2   ar
    13     5     4   ar
    14    14    15   am
    15    15    17    1
    16    18    19    1
    17    18    17    1
    18    25    20    1
    19    25    26    1
    20    19    20   ar
    21    19    24   ar
    22    32    33    1
    23    32    24    1
    24    20    21   ar
    25    31    26    1
    26    31    28    1
    27     4     3   ar
    28     2     3   ar
    29    24    23   ar
    30    26    27    1
    31    21    22   ar
    32    23    22   ar
    33    30    28    1
    34    28    27    1
    35    28    29    1
