@<TRIPOS>MOLECULE
L3024_0_out.pdbqt
 33 35 0 0 0
SMALL
GASTEIGER

@<TRIPOS>ATOM
      1 C27         6.6650  -17.7510   -8.6500 C.ar    1  MOL1       -0.0240
      2 C28         5.9120  -16.8440   -7.8830 C.ar    1  MOL1       -0.0570
      3 C29         4.8200  -17.2900   -7.1300 C.ar    1  MOL1       -0.0610
      4 C30         4.4700  -18.6430   -7.1370 C.ar    1  MOL1       -0.0480
      5 C31         5.2130  -19.5560   -7.8930 C.ar    1  MOL1        0.0180
      6 Br32        4.7460  -21.4110   -7.8840 Br      1  MOL1       -0.0510
      7 C33         6.3020  -19.1130   -8.6510 C.ar    1  MOL1       -0.0430
      8  C6         7.7990  -17.2500   -9.5180 C.3     1  MOL1        0.0630
      9  C5         7.5970  -17.7150  -10.9710 C.3     1  MOL1        0.0510
     10  C1         5.5240  -14.5470  -11.8850 C.3     1  MOL1        0.0060
     11  N2         6.2720  -15.5460  -11.1370 N.am    1  MOL1       -0.3590
     12  C3         6.8210  -16.7080  -11.7690 C.2     1  MOL1        0.2220
     13  O4         6.6580  -16.8900  -13.0060 O.2     1  MOL1       -0.2750
     14  N7         9.0860  -17.7250   -8.9970 N.am    1  MOL1       -0.3460
     15  C8         9.8130  -17.0240   -7.9870 C.2     1  MOL1        0.2580
     16  O9         9.3630  -15.9480   -7.5110 O.2     1  MOL1       -0.2710
     17 C10        11.1120  -17.5680   -7.4710 C.3     1  MOL1        0.1670
     18 O11        12.2070  -16.8080   -7.9770 O.3     1  MOL1       -0.4800
     19 C12        13.4290  -17.3990   -8.3100 C.ar    1  MOL1        0.1660
     20 C13        14.6470  -16.8990   -7.7950 C.ar    1  MOL1        0.0120
     21 C21        15.8440  -17.5720   -8.0920 C.ar    1  MOL1       -0.0540
     22 C22        15.8390  -18.6920   -8.9240 C.ar    1  MOL1       -0.0580
     23 C23        14.6410  -19.1540   -9.4710 C.ar    1  MOL1       -0.0160
     24 C24        13.4270  -18.5080   -9.1720 C.ar    1  MOL1        0.1610
     25 C14        14.6980  -15.6570   -6.9340 C.3     1  MOL1        0.0280
     26 N15        14.1420  -15.9350   -5.5940 N.3     1  MOL1       -0.2870
     27 C16        14.0570  -14.7120   -4.7780 C.3     1  MOL1        0.0640
     28 C17        15.0950  -15.2100   -3.7910 C.3     1  MOL1        0.2720
     29 F18        14.5870  -15.4540   -2.5270 F       1  MOL1       -0.2040
     30 F19        16.2660  -14.4710   -3.7930 F       1  MOL1       -0.2040
     31 C20        15.1630  -16.4480   -4.6640 C.3     1  MOL1        0.0640
     32 O25        12.2030  -18.9400   -9.7020 O.3     1  MOL1       -0.4930
     33 C26        11.7210  -18.5990  -10.9970 C.3     1  MOL1        0.0780
@<TRIPOS>BOND
     1    13    12    2
     2    10    11    1
     3    12    11   am
     4    12     9    1
     5    33    32    1
     6     9     8    1
     7    32    24    1
     8     8    14    1
     9     8     1    1
    10    23    24   ar
    11    23    22   ar
    12    24    19   ar
    13    14    15   am
    14    22    21   ar
    15     7     1   ar
    16     7     5   ar
    17     1     2   ar
    18    19    18    1
    19    19    20   ar
    20    21    20   ar
    21    15    16    2
    22    15    17    1
    23    18    17    1
    24     5     6    1
    25     5     4   ar
    26     2     3   ar
    27    20    25    1
    28     4     3   ar
    29    25    26    1
    30    26    27    1
    31    26    31    1
    32    27    28    1
    33    31    28    1
    34    30    28    1
    35    28    29    1
