@<TRIPOS>MOLECULE
L3024_0_out.pdbqt
 33 35 0 0 0
SMALL
GASTEIGER

@<TRIPOS>ATOM
      1 C27        15.6240  -16.3620   -0.5550 C.ar    1  MOL1       -0.0240
      2 C28        14.4630  -15.5700   -0.6200 C.ar    1  MOL1       -0.0570
      3 C29        14.4810  -14.2490   -0.1570 C.ar    1  MOL1       -0.0610
      4 C30        15.6550  -13.7080    0.3730 C.ar    1  MOL1       -0.0480
      5 C31        16.8170  -14.4840    0.4400 C.ar    1  MOL1        0.0180
      6 Br32       18.4300  -13.7350    1.1460 Br      1  MOL1       -0.0510
      7 C33        16.8020  -15.8060   -0.0160 C.ar    1  MOL1       -0.0430
      8  C6        15.5770  -17.8110   -0.9900 C.3     1  MOL1        0.0630
      9  C5        15.9820  -18.7260    0.1800 C.3     1  MOL1        0.0510
     10  C1        13.3950  -21.6190    0.5130 C.3     1  MOL1        0.0060
     11  N2        14.0440  -20.3200    0.6160 N.am    1  MOL1       -0.3590
     12  C3        15.3440  -20.0800    0.0660 C.2     1  MOL1        0.2220
     13  O4        15.9630  -21.0080   -0.5220 O.2     1  MOL1       -0.2750
     14  N7        16.4590  -18.0250   -2.1420 N.am    1  MOL1       -0.3460
     15  C8        16.0690  -18.8030   -3.2750 C.2     1  MOL1        0.2580
     16  O9        14.9330  -19.3470   -3.3120 O.2     1  MOL1       -0.2710
     17 C10        17.0000  -18.9680   -4.4390 C.3     1  MOL1        0.1670
     18 O11        16.2640  -19.1250   -5.6490 O.3     1  MOL1       -0.4800
     19 C12        16.5530  -18.3790   -6.7950 C.ar    1  MOL1        0.1660
     20 C13        15.8670  -17.1750   -7.0750 C.ar    1  MOL1        0.0120
     21 C21        16.2440  -16.4170   -8.1960 C.ar    1  MOL1       -0.0540
     22 C22        17.2500  -16.8680   -9.0510 C.ar    1  MOL1       -0.0580
     23 C23        17.8910  -18.0820   -8.8000 C.ar    1  MOL1       -0.0160
     24 C24        17.5440  -18.8490   -7.6720 C.ar    1  MOL1        0.1610
     25 C14        14.7360  -16.6800   -6.2020 C.3     1  MOL1        0.0280
     26 N15        15.0240  -15.3190   -5.7060 N.3     1  MOL1       -0.2870
     27 C16        15.1180  -15.2860   -4.2370 C.3     1  MOL1        0.0640
     28 C17        13.8790  -14.4230   -4.1030 C.3     1  MOL1        0.2720
     29 F18        14.1360  -13.1520   -3.6200 F       1  MOL1       -0.2040
     30 F19        12.8210  -15.0590   -3.4740 F       1  MOL1       -0.2040
     31 C20        13.8080  -14.4910   -5.6160 C.3     1  MOL1        0.0640
     32 O25        18.1630  -20.0740   -7.3850 O.3     1  MOL1       -0.4930
     33 C26        19.5680  -20.2520   -7.2400 C.3     1  MOL1        0.0780
@<TRIPOS>BOND
     1    22    23   ar
     2    22    21   ar
     3    23    24   ar
     4    21    20   ar
     5    24    32    1
     6    24    19   ar
     7    32    33    1
     8    20    19   ar
     9    20    25    1
    10    19    18    1
    11    25    26    1
    12    26    31    1
    13    26    27    1
    14    18    17    1
    15    31    28    1
    16    17    15    1
    17    27    28    1
    18    28    29    1
    19    28    30    1
    20    16    15    2
    21    15    14   am
    22    14     8    1
    23     8     1    1
    24     8     9    1
    25     2     1   ar
    26     2     3   ar
    27     1     7   ar
    28    13    12    2
    29     3     4   ar
    30     7     5   ar
    31    12     9    1
    32    12    11   am
    33     4     5   ar
    34     5     6    1
    35    10    11    1
