@<TRIPOS>MOLECULE
L3024_0_out.pdbqt
 33 35 0 0 0
SMALL
GASTEIGER

@<TRIPOS>ATOM
      1 C27         9.8110  -18.6400   -9.3760 C.ar    1  MOL1       -0.0240
      2 C28         9.6100  -18.6600  -10.7680 C.ar    1  MOL1       -0.0570
      3 C29         8.4380  -18.1310  -11.3210 C.ar    1  MOL1       -0.0610
      4 C30         7.4590  -17.5780  -10.4920 C.ar    1  MOL1       -0.0480
      5 C31         7.6480  -17.5490   -9.1060 C.ar    1  MOL1        0.0180
      6 Br32        6.3160  -16.7720   -7.9730 Br      1  MOL1       -0.0510
      7 C33         8.8150  -18.0810   -8.5490 C.ar    1  MOL1       -0.0430
      8  C6        11.0470  -19.2790   -8.7800 C.3     1  MOL1        0.0630
      9  C5        10.6450  -20.4420   -7.8550 C.3     1  MOL1        0.0510
     10  C1         9.7940  -23.4420  -10.1890 C.3     1  MOL1        0.0060
     11  N2         9.7250  -22.1700   -9.4830 N.am    1  MOL1       -0.3590
     12  C3        10.7400  -21.7640   -8.5590 C.2     1  MOL1        0.2220
     13  O4        11.7270  -22.5170   -8.3330 O.2     1  MOL1       -0.2750
     14  N7        11.8310  -18.2810   -8.0450 N.am    1  MOL1       -0.3460
     15  C8        13.2590  -18.3050   -8.0010 C.2     1  MOL1        0.2580
     16  O9        13.8980  -19.2120   -8.5980 O.2     1  MOL1       -0.2710
     17 C10        14.0130  -17.2450   -7.2550 C.3     1  MOL1        0.1670
     18 O11        15.3070  -17.0590   -7.8240 O.3     1  MOL1       -0.4800
     19 C12        16.4750  -17.3890   -7.1320 C.ar    1  MOL1        0.1660
     20 C13        16.8610  -16.6830   -5.9700 C.ar    1  MOL1        0.0120
     21 C21        18.0000  -17.1000   -5.2620 C.ar    1  MOL1       -0.0540
     22 C22        18.7710  -18.1670   -5.7240 C.ar    1  MOL1       -0.0580
     23 C23        18.4160  -18.8300   -6.8990 C.ar    1  MOL1       -0.0160
     24 C24        17.2680  -18.4430   -7.6150 C.ar    1  MOL1        0.1610
     25 C14        16.0810  -15.4880   -5.4680 C.3     1  MOL1        0.0280
     26 N15        15.9390  -15.5450   -3.9990 N.3     1  MOL1       -0.2870
     27 C16        14.8340  -16.4310   -3.5950 C.3     1  MOL1        0.0640
     28 C17        14.0230  -15.2830   -3.0280 C.3     1  MOL1        0.2720
     29 F18        13.8670  -15.3390   -1.6540 F       1  MOL1       -0.2040
     30 F19        12.8470  -15.0370   -3.7170 F       1  MOL1       -0.2040
     31 C20        15.1750  -14.4020   -3.4690 C.3     1  MOL1        0.0640
     32 O25        16.8780  -19.0830   -8.8000 O.3     1  MOL1       -0.4930
     33 C26        17.2400  -18.6490  -10.1070 C.3     1  MOL1        0.0780
@<TRIPOS>BOND
     1     3     2   ar
     2     3     4   ar
     3     2     1   ar
     4     4     5   ar
     5    10    11    1
     6    33    32    1
     7    11    12   am
     8     1     8    1
     9     1     7   ar
    10     5     7   ar
    11     5     6    1
    12    32    24    1
    13     8    14    1
    14     8     9    1
    15    16    15    2
    16    12    13    2
    17    12     9    1
    18    14    15   am
    19    15    17    1
    20    18    17    1
    21    18    19    1
    22    24    19   ar
    23    24    23   ar
    24    19    20   ar
    25    23    22   ar
    26    20    25    1
    27    20    21   ar
    28    22    21   ar
    29    25    26    1
    30    26    27    1
    31    26    31    1
    32    30    28    1
    33    27    28    1
    34    31    28    1
    35    28    29    1
