@<TRIPOS>MOLECULE
L3024_0_out.pdbqt
 33 35 0 0 0
SMALL
GASTEIGER

@<TRIPOS>ATOM
      1 C27         8.2080  -18.5910   -8.5850 C.ar    1  MOL1       -0.0240
      2 C28         8.0220  -17.1980   -8.5220 C.ar    1  MOL1       -0.0570
      3 C29         6.7690  -16.6650   -8.2030 C.ar    1  MOL1       -0.0610
      4 C30         5.6900  -17.5150   -7.9440 C.ar    1  MOL1       -0.0480
      5 C31         5.8620  -18.9030   -8.0000 C.ar    1  MOL1        0.0180
      6 Br32        4.3910  -20.0670   -7.6240 Br      1  MOL1       -0.0510
      7 C33         7.1130  -19.4400   -8.3240 C.ar    1  MOL1       -0.0430
      8  C6         9.5480  -19.1590   -9.0020 C.3     1  MOL1        0.0630
      9  C5         9.6630  -20.6250   -8.5490 C.3     1  MOL1        0.0510
     10  C1        10.1240  -23.8710  -10.6520 C.3     1  MOL1        0.0060
     11  N2        10.0660  -22.9380   -9.5360 N.am    1  MOL1       -0.3590
     12  C3         9.7250  -21.5600   -9.7220 C.2     1  MOL1        0.2220
     13  O4         9.4700  -21.1220  -10.8770 O.2     1  MOL1       -0.2750
     14  N7        10.6380  -18.3560   -8.4370 N.am    1  MOL1       -0.3460
     15  C8        11.8420  -18.0800   -9.1550 C.2     1  MOL1        0.2580
     16  O9        12.0070  -18.5370  -10.3170 O.2     1  MOL1       -0.2710
     17 C10        12.9140  -17.2310   -8.5400 C.3     1  MOL1        0.1670
     18 O11        13.4220  -17.8480   -7.3590 O.3     1  MOL1       -0.4800
     19 C12        14.6990  -17.5670   -6.8670 C.ar    1  MOL1        0.1660
     20 C13        15.8140  -18.3560   -7.2320 C.ar    1  MOL1        0.0120
     21 C21        17.0920  -17.9890   -6.7770 C.ar    1  MOL1       -0.0540
     22 C22        17.2550  -16.8890   -5.9350 C.ar    1  MOL1       -0.0580
     23 C23        16.1470  -16.1420   -5.5360 C.ar    1  MOL1       -0.0160
     24 C24        14.8600  -16.4770   -5.9950 C.ar    1  MOL1        0.1610
     25 C14        15.6690  -19.5860   -8.1000 C.3     1  MOL1        0.0280
     26 N15        14.9220  -20.6390   -7.3810 N.3     1  MOL1       -0.2870
     27 C16        15.6160  -21.0510   -6.1490 C.3     1  MOL1        0.0640
     28 C17        15.8850  -22.4450   -6.6810 C.3     1  MOL1        0.2720
     29 F18        15.2050  -23.4400   -6.0000 F       1  MOL1       -0.2040
     30 F19        17.2290  -22.7170   -6.8760 F       1  MOL1       -0.2040
     31 C20        15.1760  -21.9790   -7.9370 C.3     1  MOL1        0.0640
     32 O25        13.7200  -15.7530   -5.6160 O.3     1  MOL1       -0.4930
     33 C26        13.7500  -14.4840   -4.9710 C.3     1  MOL1        0.0780
@<TRIPOS>BOND
     1    13    12    2
     2    10    11    1
     3    16    15    2
     4    12    11   am
     5    12     9    1
     6    15    17    1
     7    15    14   am
     8     8     1    1
     9     8     9    1
    10     8    14    1
    11     1     2   ar
    12     1     7   ar
    13    17    18    1
    14     2     3   ar
    15     7     5   ar
    16     3     4   ar
    17    25    26    1
    18    25    20    1
    19     5     4   ar
    20     5     6    1
    21    31    26    1
    22    31    28    1
    23    26    27    1
    24    18    19    1
    25    20    19   ar
    26    20    21   ar
    27    30    28    1
    28    19    24   ar
    29    21    22   ar
    30    28    27    1
    31    28    29    1
    32    24    32    1
    33    24    23   ar
    34    22    23   ar
    35    32    33    1
