@<TRIPOS>MOLECULE
L3024_0_out.pdbqt
 33 35 0 0 0
SMALL
GASTEIGER

@<TRIPOS>ATOM
      1 C27         5.4540  -15.9600   -8.4750 C.ar    1  MOL1       -0.0240
      2 C28         5.5540  -16.3440   -7.1250 C.ar    1  MOL1       -0.0570
      3 C29         4.4730  -16.1610   -6.2560 C.ar    1  MOL1       -0.0610
      4 C30         3.2850  -15.5940   -6.7240 C.ar    1  MOL1       -0.0480
      5 C31         3.1710  -15.2120   -8.0650 C.ar    1  MOL1        0.0180
      6 Br32        1.5360  -14.4560   -8.7100 Br      1  MOL1       -0.0510
      7 C33         4.2510  -15.3880   -8.9360 C.ar    1  MOL1       -0.0430
      8  C6         6.6510  -16.0940   -9.3910 C.3     1  MOL1        0.0630
      9  C5         6.2510  -16.8410  -10.6760 C.3     1  MOL1        0.0510
     10  C1         5.4170  -13.6250  -12.7110 C.3     1  MOL1        0.0060
     11  N2         5.5890  -14.5670  -11.6140 N.am    1  MOL1       -0.3590
     12  C3         6.0750  -15.8960  -11.8300 C.2     1  MOL1        0.2220
     13  O4         6.3640  -16.2820  -12.9960 O.2     1  MOL1       -0.2750
     14  N7         7.7410  -16.7960   -8.7040 N.am    1  MOL1       -0.3460
     15  C8         8.6110  -17.7090   -9.3760 C.2     1  MOL1        0.2580
     16  O9         8.4560  -17.9490  -10.6030 O.2     1  MOL1       -0.2710
     17 C10         9.7270  -18.3800   -8.6310 C.3     1  MOL1        0.1670
     18 O11         9.2380  -19.5100   -7.9130 O.3     1  MOL1       -0.4800
     19 C12         9.0920  -20.7640   -8.5140 C.ar    1  MOL1        0.1660
     20 C13         7.8140  -21.2800   -8.8260 C.ar    1  MOL1        0.0120
     21 C21         7.7170  -22.5090   -9.5010 C.ar    1  MOL1       -0.0540
     22 C22         8.8650  -23.2350   -9.8180 C.ar    1  MOL1       -0.0580
     23 C23        10.1230  -22.7470   -9.4630 C.ar    1  MOL1       -0.0160
     24 C24        10.2460  -21.5090   -8.8050 C.ar    1  MOL1        0.1610
     25 C14         6.5450  -20.5470   -8.4520 C.3     1  MOL1        0.0280
     26 N15         5.4830  -21.5070   -8.0860 N.3     1  MOL1       -0.2870
     27 C16         4.2430  -21.2570   -8.8400 C.3     1  MOL1        0.0640
     28 C17         3.4790  -20.8570   -7.5930 C.3     1  MOL1        0.2720
     29 F18         2.4690  -21.7400   -7.2530 F       1  MOL1       -0.2040
     30 F19         3.0910  -19.5270   -7.5800 F       1  MOL1       -0.2040
     31 C20         4.7780  -21.1120   -6.8540 C.3     1  MOL1        0.0640
     32 O25        11.4920  -20.9840   -8.4310 O.3     1  MOL1       -0.4930
     33 C26        12.4950  -21.7120   -7.7310 C.3     1  MOL1        0.0780
@<TRIPOS>BOND
     1    13    12    2
     2    10    11    1
     3    12    11   am
     4    12     9    1
     5     9     8    1
     6    16    15    2
     7    22    21   ar
     8    22    23   ar
     9    21    20   ar
    10    23    24   ar
    11     8    14    1
    12     8     1    1
    13    15    14   am
    14    15    17    1
    15     7     1   ar
    16     7     5   ar
    17    27    26    1
    18    27    28    1
    19    20    19   ar
    20    20    25    1
    21    24    19   ar
    22    24    32    1
    23     6     5    1
    24    17    18    1
    25    19    18    1
    26     1     2   ar
    27    25    26    1
    28    32    33    1
    29    26    31    1
    30     5     4   ar
    31    28    30    1
    32    28    29    1
    33    28    31    1
    34     2     3   ar
    35     4     3   ar
