@<TRIPOS>MOLECULE
L3024_0_out.pdbqt
 33 35 0 0 0
SMALL
GASTEIGER

@<TRIPOS>ATOM
      1 C27         8.2020  -20.0770  -10.0780 C.ar    1  MOL1       -0.0240
      2 C28         7.0500  -20.2330  -10.8710 C.ar    1  MOL1       -0.0570
      3 C29         6.6400  -21.5060  -11.2820 C.ar    1  MOL1       -0.0610
      4 C30         7.3740  -22.6340  -10.9060 C.ar    1  MOL1       -0.0480
      5 C31         8.5200  -22.4940  -10.1140 C.ar    1  MOL1        0.0180
      6 Br32        9.5110  -24.0410   -9.5820 Br      1  MOL1       -0.0510
      7 C33         8.9360  -21.2220   -9.7060 C.ar    1  MOL1       -0.0430
      8  C6         8.6790  -18.6920   -9.6990 C.3     1  MOL1        0.0630
      9  C5         7.9040  -17.6300  -10.5000 C.3     1  MOL1        0.0510
     10  C1         5.7030  -16.6640   -7.4350 C.3     1  MOL1        0.0060
     11  N2         6.6600  -17.3440   -8.2960 N.am    1  MOL1       -0.3590
     12  C3         6.9030  -16.9140   -9.6400 C.2     1  MOL1        0.2220
     13  O4         6.2770  -15.9250  -10.1110 O.2     1  MOL1       -0.2750
     14  N7        10.1210  -18.5680   -9.9380 N.am    1  MOL1       -0.3460
     15  C8        10.9960  -17.8940   -9.0320 C.2     1  MOL1        0.2580
     16  O9        10.5390  -17.3660   -7.9830 O.2     1  MOL1       -0.2710
     17 C10        12.4670  -17.8190   -9.3110 C.3     1  MOL1        0.1670
     18 O11        13.1870  -17.5160   -8.1190 O.3     1  MOL1       -0.4800
     19 C12        14.4480  -16.9140   -8.1470 C.ar    1  MOL1        0.1660
     20 C13        15.5850  -17.6200   -8.6030 C.ar    1  MOL1        0.0120
     21 C21        16.8170  -16.9520   -8.6890 C.ar    1  MOL1       -0.0540
     22 C22        16.9310  -15.6220   -8.2840 C.ar    1  MOL1       -0.0580
     23 C23        15.8190  -14.9420   -7.7870 C.ar    1  MOL1       -0.0160
     24 C24        14.5690  -15.5850   -7.7100 C.ar    1  MOL1        0.1610
     25 C14        15.5110  -19.0780   -9.0010 C.3     1  MOL1        0.0280
     26 N15        15.7010  -19.9440   -7.8200 N.3     1  MOL1       -0.2870
     27 C16        16.5460  -21.1090   -8.1330 C.3     1  MOL1        0.0640
     28 C17        15.4060  -22.0860   -7.9180 C.3     1  MOL1        0.2720
     29 F18        15.5850  -22.9160   -6.8250 F       1  MOL1       -0.2040
     30 F19        15.0160  -22.7490   -9.0700 F       1  MOL1       -0.2040
     31 C20        14.5660  -20.8610   -7.6140 C.3     1  MOL1        0.0640
     32 O25        13.4280  -14.9380   -7.2160 O.3     1  MOL1       -0.4930
     33 C26        12.7420  -15.3120   -6.0260 C.3     1  MOL1        0.0780
@<TRIPOS>BOND
     1     3     4   ar
     2     3     2   ar
     3     4     5   ar
     4     2     1   ar
     5     9     8    1
     6     9    12    1
     7     5     7   ar
     8     5     6    1
     9    13    12    2
    10     1     7   ar
    11     1     8    1
    12    14     8    1
    13    14    15   am
    14    12    11   am
    15    17    15    1
    16    17    18    1
    17    30    28    1
    18    15    16    2
    19    25    20    1
    20    25    26    1
    21    21    20   ar
    22    21    22   ar
    23    20    19   ar
    24    11    10    1
    25    22    23   ar
    26    19    18    1
    27    19    24   ar
    28    27    28    1
    29    27    26    1
    30    28    31    1
    31    28    29    1
    32    26    31    1
    33    23    24   ar
    34    24    32    1
    35    32    33    1
