@<TRIPOS>MOLECULE
L3024_0_out.pdbqt
 33 35 0 0 0
SMALL
GASTEIGER

@<TRIPOS>ATOM
      1 C27        15.9280  -17.6290   -7.6430 C.ar    1  MOL1       -0.0240
      2 C28        16.0270  -16.6110   -8.6100 C.ar    1  MOL1       -0.0570
      3 C29        16.4860  -15.3390   -8.2530 C.ar    1  MOL1       -0.0610
      4 C30        16.8500  -15.0700   -6.9310 C.ar    1  MOL1       -0.0480
      5 C31        16.7590  -16.0740   -5.9600 C.ar    1  MOL1        0.0180
      6 Br32       17.2780  -15.7110   -4.1550 Br      1  MOL1       -0.0510
      7 C33        16.2950  -17.3450   -6.3120 C.ar    1  MOL1       -0.0430
      8  C6        15.3610  -18.9800   -8.0220 C.3     1  MOL1        0.0630
      9  C5        16.2240  -19.6240   -9.1220 C.3     1  MOL1        0.0510
     10  C1        19.2050  -21.1680   -7.1470 C.3     1  MOL1        0.0060
     11  N2        17.8630  -20.8760   -7.6280 N.am    1  MOL1       -0.3590
     12  C3        17.6200  -19.8930   -8.6400 C.2     1  MOL1        0.2220
     13  O4        18.5830  -19.2470   -9.1380 O.2     1  MOL1       -0.2750
     14  N7        13.9720  -18.8410   -8.4710 N.am    1  MOL1       -0.3460
     15  C8        12.9850  -19.8490   -8.2400 C.2     1  MOL1        0.2580
     16  O9        13.2920  -20.9130   -7.6400 O.2     1  MOL1       -0.2710
     17 C10        11.5720  -19.6450   -8.6970 C.3     1  MOL1        0.1670
     18 O11        10.6980  -20.5610   -8.0410 O.3     1  MOL1       -0.4800
     19 C12         9.7530  -21.3160   -8.7410 C.ar    1  MOL1        0.1660
     20 C13         8.4540  -20.8150   -8.9880 C.ar    1  MOL1        0.0120
     21 C21         7.5630  -21.5750   -9.7640 C.ar    1  MOL1       -0.0540
     22 C22         7.9360  -22.8290  -10.2460 C.ar    1  MOL1       -0.0580
     23 C23         9.2010  -23.3430   -9.9580 C.ar    1  MOL1       -0.0160
     24 C24        10.1180  -22.5920   -9.2000 C.ar    1  MOL1        0.1610
     25 C14         7.9960  -19.4830   -8.4370 C.3     1  MOL1        0.0280
     26 N15         7.4720  -18.6290   -9.5220 N.3     1  MOL1       -0.2870
     27 C16         8.5230  -17.7690  -10.0910 C.3     1  MOL1        0.0640
     28 C17         7.8610  -16.5010   -9.5880 C.3     1  MOL1        0.2720
     29 F18         7.3850  -15.6850  -10.5990 F       1  MOL1       -0.2040
     30 F19         8.5980  -15.8310   -8.6260 F       1  MOL1       -0.2040
     31 C20         6.8050  -17.4210   -9.0060 C.3     1  MOL1        0.0640
     32 O25        11.3980  -23.0730   -8.8890 O.3     1  MOL1       -0.4930
     33 C26        11.6630  -24.3580   -8.3360 C.3     1  MOL1        0.0780
@<TRIPOS>BOND
     1    29    28    1
     2    22    23   ar
     3    22    21   ar
     4    27    28    1
     5    27    26    1
     6    23    24   ar
     7    21    20   ar
     8    28    31    1
     9    28    30    1
    10    26    31    1
    11    26    25    1
    12    24    32    1
    13    24    19   ar
    14    13    12    2
    15     9    12    1
    16     9     8    1
    17    20    19   ar
    18    20    25    1
    19    32    33    1
    20    19    18    1
    21    17    15    1
    22    17    18    1
    23    12    11   am
    24     2     3   ar
    25     2     1   ar
    26    14    15   am
    27    14     8    1
    28     3     4   ar
    29    15    16    2
    30     8     1    1
    31     1     7   ar
    32    11    10    1
    33     4     5   ar
    34     7     5   ar
    35     5     6    1
