@<TRIPOS>MOLECULE
L3024_0_out.pdbqt
 33 35 0 0 0
SMALL
GASTEIGER

@<TRIPOS>ATOM
      1 C27         7.1310  -17.1270  -10.4130 C.ar    1  MOL1       -0.0240
      2 C28         7.3890  -17.6780  -11.6810 C.ar    1  MOL1       -0.0570
      3 C29         6.8540  -17.0880  -12.8320 C.ar    1  MOL1       -0.0610
      4 C30         6.0570  -15.9450  -12.7280 C.ar    1  MOL1       -0.0480
      5 C31         5.7950  -15.3840  -11.4720 C.ar    1  MOL1        0.0180
      6 Br32        4.7230  -13.8060  -11.3330 Br      1  MOL1       -0.0510
      7 C33         6.3240  -15.9740  -10.3200 C.ar    1  MOL1       -0.0430
      8  C6         7.6530  -17.8120   -9.1690 C.3     1  MOL1        0.0630
      9  C5         6.4960  -18.0780   -8.1890 C.3     1  MOL1        0.0510
     10  C1         4.2950  -21.2610   -7.7460 C.3     1  MOL1        0.0060
     11  N2         4.7780  -19.8900   -7.6830 N.am    1  MOL1       -0.3590
     12  C3         6.0300  -19.5030   -8.2610 C.2     1  MOL1        0.2220
     13  O4         6.7500  -20.3620   -8.8400 O.2     1  MOL1       -0.2750
     14  N7         8.6890  -16.9920   -8.5330 N.am    1  MOL1       -0.3460
     15  C8         9.7220  -17.5510   -7.7190 C.2     1  MOL1        0.2580
     16  O9         9.7640  -18.7930   -7.5120 O.2     1  MOL1       -0.2710
     17 C10        10.7730  -16.6700   -7.1140 C.3     1  MOL1        0.1670
     18 O11        11.9530  -16.6800   -7.9130 O.3     1  MOL1       -0.4800
     19 C12        13.0570  -17.4760   -7.5950 C.ar    1  MOL1        0.1660
     20 C13        14.0130  -17.0530   -6.6430 C.ar    1  MOL1        0.0120
     21 C21        15.0630  -17.9190   -6.2950 C.ar    1  MOL1       -0.0540
     22 C22        15.1910  -19.1610   -6.9160 C.ar    1  MOL1       -0.0580
     23 C23        14.2760  -19.5550   -7.8920 C.ar    1  MOL1       -0.0160
     24 C24        13.2040  -18.7140   -8.2420 C.ar    1  MOL1        0.1610
     25 C14        13.9360  -15.6910   -5.9880 C.3     1  MOL1        0.0280
     26 N15        14.2910  -15.7870   -4.5570 N.3     1  MOL1       -0.2870
     27 C16        13.3300  -15.0600   -3.7110 C.3     1  MOL1        0.0640
     28 C17        14.3660  -14.0400   -3.2830 C.3     1  MOL1        0.2720
     29 F18        14.6900  -14.1070   -1.9390 F       1  MOL1       -0.2040
     30 F19        14.1040  -12.7560   -3.7330 F       1  MOL1       -0.2040
     31 C20        15.3230  -14.8070   -4.1740 C.3     1  MOL1        0.0640
     32 O25        12.2630  -19.0720   -9.2180 O.3     1  MOL1       -0.4930
     33 C26        12.3740  -18.7500  -10.6010 C.3     1  MOL1        0.0780
@<TRIPOS>BOND
     1     3     4   ar
     2     3     2   ar
     3     4     5   ar
     4     2     1   ar
     5     5     6    1
     6     5     7   ar
     7    33    32    1
     8     1     7   ar
     9     1     8    1
    10    32    24    1
    11     8    14    1
    12     8     9    1
    13    13    12    2
    14    14    15   am
    15    12     9    1
    16    12    11   am
    17    24    23   ar
    18    24    19   ar
    19    18    19    1
    20    18    17    1
    21    23    22   ar
    22    10    11    1
    23    15    16    2
    24    15    17    1
    25    19    20   ar
    26    22    21   ar
    27    20    21   ar
    28    20    25    1
    29    25    26    1
    30    26    31    1
    31    26    27    1
    32    31    28    1
    33    30    28    1
    34    27    28    1
    35    28    29    1
