@<TRIPOS>MOLECULE
L3024_0_out.pdbqt
 33 35 0 0 0
SMALL
GASTEIGER

@<TRIPOS>ATOM
      1 C27         7.1360  -18.7070   -9.4770 C.ar    1  MOL1       -0.0240
      2 C28         6.3160  -18.6610   -8.3340 C.ar    1  MOL1       -0.0570
      3 C29         5.5790  -19.7850   -7.9460 C.ar    1  MOL1       -0.0610
      4 C30         5.6530  -20.9640   -8.6920 C.ar    1  MOL1       -0.0480
      5 C31         6.4670  -21.0250   -9.8290 C.ar    1  MOL1        0.0180
      6 Br32        6.5840  -22.6460  -10.8380 Br      1  MOL1       -0.0510
      7 C33         7.2010  -19.9010  -10.2230 C.ar    1  MOL1       -0.0430
      8  C6         7.8720  -17.4660   -9.9310 C.3     1  MOL1        0.0630
      9  C5         8.8770  -17.0240   -8.8520 C.3     1  MOL1        0.0510
     10  C1        11.4370  -19.5840   -7.4130 C.3     1  MOL1        0.0060
     11  N2        10.3260  -18.6510   -7.5320 N.am    1  MOL1       -0.3590
     12  C3        10.0370  -17.9730   -8.7590 C.2     1  MOL1        0.2220
     13  O4        10.7580  -18.1710   -9.7750 O.2     1  MOL1       -0.2750
     14  N7         6.9200  -16.3880  -10.2220 N.am    1  MOL1       -0.3460
     15  C8         6.3200  -16.2180  -11.5080 C.2     1  MOL1        0.2580
     16  O9         6.6070  -17.0020  -12.4510 O.2     1  MOL1       -0.2710
     17 C10         5.3330  -15.1150  -11.7440 C.3     1  MOL1        0.1670
     18 O11         5.0640  -14.4170  -10.5300 O.3     1  MOL1       -0.4800
     19 C12         3.7910  -14.3930   -9.9560 C.ar    1  MOL1        0.1660
     20 C13         2.7000  -13.7870  -10.6210 C.ar    1  MOL1        0.0120
     21 C21         1.4220  -13.8550  -10.0430 C.ar    1  MOL1       -0.0540
     22 C22         1.2360  -14.4690   -8.8050 C.ar    1  MOL1       -0.0580
     23 C23         2.3230  -15.0220   -8.1260 C.ar    1  MOL1       -0.0160
     24 C24         3.6090  -14.9840   -8.6950 C.ar    1  MOL1        0.1610
     25 C14         2.8720  -13.0660  -11.9390 C.3     1  MOL1        0.0280
     26 N15         3.6240  -11.8090  -11.7450 N.3     1  MOL1       -0.2870
     27 C16         2.8670  -10.8460  -10.9270 C.3     1  MOL1        0.0640
     28 C17         2.7150   -9.8740  -12.0800 C.3     1  MOL1        0.2720
     29 F18         3.3990   -8.6840  -11.8980 F       1  MOL1       -0.2040
     30 F19         1.4060   -9.7100  -12.5020 F       1  MOL1       -0.2040
     31 C20         3.4850  -10.8960  -12.8930 C.3     1  MOL1        0.0640
     32 O25         4.7280  -15.5270   -8.0450 O.3     1  MOL1       -0.4930
     33 C26         4.8540  -15.6590   -6.6340 C.3     1  MOL1        0.0780
@<TRIPOS>BOND
     1    31    28    1
     2    31    26    1
     3    30    28    1
     4    16    15    2
     5    28    29    1
     6    28    27    1
     7    25    26    1
     8    25    20    1
     9    26    27    1
    10    17    15    1
    11    17    18    1
    12    15    14   am
    13     6     5    1
    14    20    21   ar
    15    20    19   ar
    16    18    19    1
    17     7     5   ar
    18     7     1   ar
    19    14     8    1
    20    21    22   ar
    21    19    24   ar
    22     8     1    1
    23     8     9    1
    24     5     4   ar
    25    13    12    2
    26     1     2   ar
    27     9    12    1
    28    22    23   ar
    29    12    11   am
    30    24    23   ar
    31    24    32    1
    32     4     3   ar
    33     2     3   ar
    34    32    33    1
    35    11    10    1
