@<TRIPOS>MOLECULE
L3024_0_out.pdbqt
 33 35 0 0 0
SMALL
GASTEIGER

@<TRIPOS>ATOM
      1 C27        15.0580  -19.3880   -5.1730 C.ar    1  MOL1       -0.0240
      2 C28        15.3420  -18.0110   -5.2290 C.ar    1  MOL1       -0.0570
      3 C29        15.6590  -17.3070   -4.0620 C.ar    1  MOL1       -0.0610
      4 C30        15.6960  -17.9680   -2.8320 C.ar    1  MOL1       -0.0480
      5 C31        15.4180  -19.3380   -2.7630 C.ar    1  MOL1        0.0180
      6 Br32       15.4900  -20.2460   -1.0810 Br      1  MOL1       -0.0510
      7 C33        15.0960  -20.0440   -3.9260 C.ar    1  MOL1       -0.0430
      8  C6        14.6450  -20.1270   -6.4280 C.3     1  MOL1        0.0630
      9  C5        15.4790  -19.6400   -7.6260 C.3     1  MOL1        0.0510
     10  C1        17.9010  -22.6900   -7.5750 C.3     1  MOL1        0.0060
     11  N2        16.7290  -21.8470   -7.3910 N.am    1  MOL1       -0.3590
     12  C3        16.7070  -20.4810   -7.8200 C.2     1  MOL1        0.2220
     13  O4        17.7230  -19.9750   -8.3700 O.2     1  MOL1       -0.2750
     14  N7        13.2130  -19.9350   -6.6830 N.am    1  MOL1       -0.3460
     15  C8        12.3840  -20.9630   -7.2290 C.2     1  MOL1        0.2580
     16  O9        12.8750  -22.0850   -7.5230 O.2     1  MOL1       -0.2710
     17 C10        10.9200  -20.7210   -7.4450 C.3     1  MOL1        0.1670
     18 O11        10.5870  -20.8780   -8.8230 O.3     1  MOL1       -0.4800
     19 C12         9.4000  -21.4900   -9.2340 C.ar    1  MOL1        0.1660
     20 C13         8.1750  -20.7840   -9.2350 C.ar    1  MOL1        0.0120
     21 C21         7.0220  -21.4150   -9.7300 C.ar    1  MOL1       -0.0540
     22 C22         7.0710  -22.7370  -10.1710 C.ar    1  MOL1       -0.0580
     23 C23         8.2700  -23.4480  -10.1220 C.ar    1  MOL1       -0.0160
     24 C24         9.4430  -22.8310   -9.6490 C.ar    1  MOL1        0.1610
     25 C14         8.0720  -19.3680   -8.7150 C.3     1  MOL1        0.0280
     26 N15         7.3810  -18.5070   -9.6960 N.3     1  MOL1       -0.2870
     27 C16         8.3240  -17.6180  -10.3950 C.3     1  MOL1        0.0640
     28 C17         7.7200  -16.3720   -9.7780 C.3     1  MOL1        0.2720
     29 F18         7.0880  -15.5480  -10.6940 F       1  MOL1       -0.2040
     30 F19         8.5770  -15.7030   -8.9200 F       1  MOL1       -0.2040
     31 C20         6.7760  -17.3210   -9.0670 C.3     1  MOL1        0.0640
     32 O25        10.6680  -23.5110   -9.5820 O.3     1  MOL1       -0.4930
     33 C26        10.9230  -24.6320   -8.7420 C.3     1  MOL1        0.0780
@<TRIPOS>BOND
     1    29    28    1
     2    27    28    1
     3    27    26    1
     4    22    23   ar
     5    22    21   ar
     6    23    24   ar
     7    28    31    1
     8    28    30    1
     9    21    20   ar
    10    26    31    1
    11    26    25    1
    12    24    32    1
    13    24    19   ar
    14    32    33    1
    15    20    19   ar
    16    20    25    1
    17    19    18    1
    18    18    17    1
    19    13    12    2
    20    12     9    1
    21    12    11   am
    22     9     8    1
    23    10    11    1
    24    16    15    2
    25    17    15    1
    26    15    14   am
    27    14     8    1
    28     8     1    1
    29     2     1   ar
    30     2     3   ar
    31     1     7   ar
    32     3     4   ar
    33     7     5   ar
    34     4     5   ar
    35     5     6    1
