@<TRIPOS>MOLECULE
L3024_0_out.pdbqt
 33 35 0 0 0
SMALL
GASTEIGER

@<TRIPOS>ATOM
      1 C27         6.0470  -21.3520   -9.1280 C.ar    1  MOL1       -0.0240
      2 C28         5.8850  -20.5410   -7.9900 C.ar    1  MOL1       -0.0570
      3 C29         4.6090  -20.2920   -7.4740 C.ar    1  MOL1       -0.0610
      4 C30         3.4830  -20.8480   -8.0880 C.ar    1  MOL1       -0.0480
      5 C31         3.6310  -21.6590   -9.2190 C.ar    1  MOL1        0.0180
      6 Br32        2.0910  -22.4380  -10.0460 Br      1  MOL1       -0.0510
      7 C33         4.9050  -21.9060   -9.7400 C.ar    1  MOL1       -0.0430
      8  C6         7.4240  -21.5570   -9.7220 C.3     1  MOL1        0.0630
      9  C5         7.5600  -22.9960  -10.2530 C.3     1  MOL1        0.0510
     10  C1        11.0390  -24.6620   -9.7150 C.3     1  MOL1        0.0060
     11  N2         9.6480  -24.2680   -9.5420 N.am    1  MOL1       -0.3590
     12  C3         8.9980  -23.3750  -10.4530 C.2     1  MOL1        0.2220
     13  O4         9.6320  -22.9020  -11.4350 O.2     1  MOL1       -0.2750
     14  N7         8.4570  -21.2770   -8.7190 N.am    1  MOL1       -0.3460
     15  C8         9.5310  -20.3650   -8.9550 C.2     1  MOL1        0.2580
     16  O9         9.6270  -19.7690  -10.0610 O.2     1  MOL1       -0.2710
     17 C10        10.5460  -20.0950   -7.8850 C.3     1  MOL1        0.1670
     18 O11        11.6240  -19.3190   -8.4040 O.3     1  MOL1       -0.4800
     19 C12        12.1570  -18.2310   -7.7080 C.ar    1  MOL1        0.1660
     20 C13        13.4720  -18.2680   -7.1910 C.ar    1  MOL1        0.0120
     21 C21        13.9950  -17.1230   -6.5670 C.ar    1  MOL1       -0.0540
     22 C22        13.2110  -15.9790   -6.4140 C.ar    1  MOL1       -0.0580
     23 C23        11.8960  -15.9630   -6.8800 C.ar    1  MOL1       -0.0160
     24 C24        11.3570  -17.0910   -7.5260 C.ar    1  MOL1        0.1610
     25 C14        14.3330  -19.5070   -7.2910 C.3     1  MOL1        0.0280
     26 N15        13.6270  -20.6730   -6.7210 N.3     1  MOL1       -0.2870
     27 C16        14.4030  -21.3000   -5.6380 C.3     1  MOL1        0.0640
     28 C17        14.6170  -22.5750   -6.4290 C.3     1  MOL1        0.2720
     29 F18        13.9760  -23.6770   -5.8920 F       1  MOL1       -0.2040
     30 F19        15.9410  -22.8050   -6.7680 F       1  MOL1       -0.2040
     31 C20        13.8250  -21.8900   -7.5270 C.3     1  MOL1        0.0640
     32 O25        10.0410  -17.1160   -8.0080 O.3     1  MOL1       -0.4930
     33 C26         9.0620  -16.1190   -7.7300 C.3     1  MOL1        0.0780
@<TRIPOS>BOND
     1    13    12    2
     2    12     9    1
     3    12    11   am
     4     9     8    1
     5    16    15    2
     6     6     5    1
     7     7     5   ar
     8     7     1   ar
     9     8     1    1
    10     8    14    1
    11    10    11    1
    12     5     4   ar
    13     1     2   ar
    14    15    14   am
    15    15    17    1
    16    18    17    1
    17    18    19    1
    18     4     3   ar
    19    32    33    1
    20    32    24    1
    21     2     3   ar
    22    19    24   ar
    23    19    20   ar
    24    31    26    1
    25    31    28    1
    26    24    23   ar
    27    25    20    1
    28    25    26    1
    29    20    21   ar
    30    23    22   ar
    31    30    28    1
    32    26    27    1
    33    21    22   ar
    34    28    29    1
    35    28    27    1
