@<TRIPOS>MOLECULE
L3024_0_out.pdbqt
 33 35 0 0 0
SMALL
GASTEIGER

@<TRIPOS>ATOM
      1 C27         6.9990  -19.3960   -8.9480 C.ar    1  MOL1       -0.0240
      2 C28         6.8980  -18.0530   -8.5410 C.ar    1  MOL1       -0.0570
      3 C29         5.7790  -17.6130   -7.8250 C.ar    1  MOL1       -0.0610
      4 C30         4.7520  -18.5080   -7.5100 C.ar    1  MOL1       -0.0480
      5 C31         4.8420  -19.8470   -7.9060 C.ar    1  MOL1        0.0180
      6 Br32        3.4470  -21.0750   -7.4550 Br      1  MOL1       -0.0510
      7 C33         5.9570  -20.2890   -8.6260 C.ar    1  MOL1       -0.0430
      8  C6         8.1780  -19.8470   -9.7840 C.3     1  MOL1        0.0630
      9  C5         7.7190  -20.8840  -10.8250 C.3     1  MOL1        0.0510
     10  C1        10.2020  -23.8780  -11.0320 C.3     1  MOL1        0.0060
     11  N2         9.5600  -22.5900  -11.2540 N.am    1  MOL1       -0.3590
     12  C3         8.3510  -22.2240  -10.5820 C.2     1  MOL1        0.2220
     13  O4         7.8070  -23.0270   -9.7760 O.2     1  MOL1       -0.2750
     14  N7         9.2260  -20.4070   -8.9240 N.am    1  MOL1       -0.3460
     15  C8        10.5570  -19.8860   -8.8960 C.2     1  MOL1        0.2580
     16  O9        10.8750  -18.9160   -9.6330 O.2     1  MOL1       -0.2710
     17 C10        11.5830  -20.4800   -7.9780 C.3     1  MOL1        0.1670
     18 O11        12.8800  -19.9730   -8.2860 O.3     1  MOL1       -0.4800
     19 C12        13.9920  -20.2470   -7.4860 C.ar    1  MOL1        0.1660
     20 C13        14.6450  -19.2210   -6.7640 C.ar    1  MOL1        0.0120
     21 C21        15.7100  -19.5550   -5.9110 C.ar    1  MOL1       -0.0540
     22 C22        16.1510  -20.8740   -5.8110 C.ar    1  MOL1       -0.0580
     23 C23        15.5380  -21.8770   -6.5630 C.ar    1  MOL1       -0.0160
     24 C24        14.4560  -21.5700   -7.4090 C.ar    1  MOL1        0.1610
     25 C14        14.2290  -17.7720   -6.8880 C.3     1  MOL1        0.0280
     26 N15        15.4150  -16.8920   -6.8730 N.3     1  MOL1       -0.2870
     27 C16        15.0660  -15.5190   -6.4710 C.3     1  MOL1        0.0640
     28 C17        15.4090  -14.9540   -7.8350 C.3     1  MOL1        0.2720
     29 F18        16.5070  -14.1110   -7.8280 F       1  MOL1       -0.2040
     30 F19        14.3160  -14.4460   -8.5190 F       1  MOL1       -0.2040
     31 C20        15.7460  -16.3830   -8.2150 C.3     1  MOL1        0.0640
     32 O25        13.8140  -22.5490   -8.1820 O.3     1  MOL1       -0.4930
     33 C26        13.3260  -23.7850   -7.6720 C.3     1  MOL1        0.0780
@<TRIPOS>BOND
     1    11    10    1
     2    11    12   am
     3     9    12    1
     4     9     8    1
     5    12    13    2
     6     8     1    1
     7     8    14    1
     8    16    15    2
     9     1     7   ar
    10     1     2   ar
    11    14    15   am
    12    15    17    1
    13     7     5   ar
    14     2     3   ar
    15    30    28    1
    16    18    17    1
    17    18    19    1
    18    31    28    1
    19    31    26    1
    20    32    33    1
    21    32    24    1
    22     5     4   ar
    23     5     6    1
    24    28    29    1
    25    28    27    1
    26     3     4   ar
    27    19    24   ar
    28    19    20   ar
    29    24    23   ar
    30    25    26    1
    31    25    20    1
    32    26    27    1
    33    20    21   ar
    34    23    22   ar
    35    21    22   ar
