@<TRIPOS>MOLECULE
L3024_0_out.pdbqt
 33 35 0 0 0
SMALL
GASTEIGER

@<TRIPOS>ATOM
      1 C27         6.1530  -20.9830   -8.8920 C.ar    1  MOL1       -0.0240
      2 C28         5.9710  -20.8510   -7.5030 C.ar    1  MOL1       -0.0570
      3 C29         4.7500  -21.1960   -6.9140 C.ar    1  MOL1       -0.0610
      4 C30         3.7000  -21.6750   -7.7030 C.ar    1  MOL1       -0.0480
      5 C31         3.8690  -21.8130   -9.0850 C.ar    1  MOL1        0.0180
      6 Br32        2.4390  -22.4890  -10.1620 Br      1  MOL1       -0.0510
      7 C33         5.0870  -21.4640   -9.6790 C.ar    1  MOL1       -0.0430
      8  C6         7.4510  -20.5390   -9.5310 C.3     1  MOL1        0.0630
      9  C5         7.6860  -21.3140  -10.8410 C.3     1  MOL1        0.0510
     10  C1        10.3670  -24.1300  -11.0670 C.3     1  MOL1        0.0060
     11  N2         9.6320  -22.8930  -11.2910 N.am    1  MOL1       -0.3590
     12  C3         8.4150  -22.6020  -10.5950 C.2     1  MOL1        0.2220
     13  O4         7.9480  -23.4300   -9.7650 O.2     1  MOL1       -0.2750
     14  N7         8.5690  -20.7420   -8.6040 N.am    1  MOL1       -0.3460
     15  C8         9.3140  -19.6560   -8.0470 C.2     1  MOL1        0.2580
     16  O9         9.0290  -18.4680   -8.3540 O.2     1  MOL1       -0.2710
     17 C10        10.4310  -19.9190   -7.0830 C.3     1  MOL1        0.1670
     18 O11        11.6280  -20.2510   -7.7840 O.3     1  MOL1       -0.4800
     19 C12        12.8480  -20.4260   -7.1260 C.ar    1  MOL1        0.1660
     20 C13        13.7440  -19.3470   -6.9480 C.ar    1  MOL1        0.0120
     21 C21        14.9240  -19.5500   -6.2120 C.ar    1  MOL1       -0.0540
     22 C22        15.2320  -20.8120   -5.7030 C.ar    1  MOL1       -0.0580
     23 C23        14.3700  -21.8870   -5.9230 C.ar    1  MOL1       -0.0160
     24 C24        13.1740  -21.7030   -6.6410 C.ar    1  MOL1        0.1610
     25 C14        13.4690  -17.9780   -7.5310 C.3     1  MOL1        0.0280
     26 N15        13.4970  -16.9510   -6.4690 N.3     1  MOL1       -0.2870
     27 C16        12.6750  -15.7820   -6.8260 C.3     1  MOL1        0.0640
     28 C17        13.8810  -14.8680   -6.9090 C.3     1  MOL1        0.2720
     29 F18        13.9050  -13.8890   -5.9310 F       1  MOL1       -0.2040
     30 F19        14.1330  -14.3920   -8.1860 F       1  MOL1       -0.2040
     31 C20        14.6940  -16.0970   -6.5530 C.3     1  MOL1        0.0640
     32 O25        12.2810  -22.7570   -6.8840 O.3     1  MOL1       -0.4930
     33 C26        12.3210  -23.5970   -8.0330 C.3     1  MOL1        0.0780
@<TRIPOS>BOND
     1    11    10    1
     2    11    12   am
     3     9    12    1
     4     9     8    1
     5    12    13    2
     6     6     5    1
     7     7     5   ar
     8     7     1   ar
     9     8     1    1
    10     8    14    1
    11     5     4   ar
    12     1     2   ar
    13    14    15   am
    14    16    15    2
    15    30    28    1
    16    15    17    1
    17    33    32    1
    18    18    19    1
    19    18    17    1
    20     4     3   ar
    21    25    20    1
    22    25    26    1
    23     2     3   ar
    24    19    20   ar
    25    19    24   ar
    26    20    21   ar
    27    28    27    1
    28    28    31    1
    29    28    29    1
    30    32    24    1
    31    27    26    1
    32    24    23   ar
    33    31    26    1
    34    21    22   ar
    35    23    22   ar
