@<TRIPOS>MOLECULE
L3024_0_out.pdbqt
 33 35 0 0 0
SMALL
GASTEIGER

@<TRIPOS>ATOM
      1 C27        15.4280  -16.6910    0.2480 C.ar    1  MOL1       -0.0240
      2 C28        14.3490  -16.2920    1.0590 C.ar    1  MOL1       -0.0570
      3 C29        13.3770  -17.2190    1.4490 C.ar    1  MOL1       -0.0610
      4 C30        13.4700  -18.5500    1.0350 C.ar    1  MOL1       -0.0480
      5 C31        14.5390  -18.9610    0.2310 C.ar    1  MOL1        0.0180
      6 Br32       14.6780  -20.7890   -0.3170 Br      1  MOL1       -0.0510
      7 C33        15.5110  -18.0370   -0.1660 C.ar    1  MOL1       -0.0430
      8  C6        16.4350  -15.6680   -0.2300 C.3     1  MOL1        0.0630
      9  C5        16.1010  -14.2850    0.3570 C.3     1  MOL1        0.0510
     10  C1        19.4340  -13.3780    2.1570 C.3     1  MOL1        0.0060
     11  N2        18.4690  -13.7660    1.1390 N.am    1  MOL1       -0.3590
     12  C3        17.0730  -13.8930    1.4320 C.2     1  MOL1        0.2220
     13  O4        16.6490  -13.6730    2.5990 O.2     1  MOL1       -0.2750
     14  N7        16.4510  -15.6170   -1.6960 N.am    1  MOL1       -0.3460
     15  C8        17.5920  -15.1790   -2.4380 C.2     1  MOL1        0.2580
     16  O9        18.6350  -14.8060   -1.8380 O.2     1  MOL1       -0.2710
     17 C10        17.5640  -15.1710   -3.9370 C.3     1  MOL1        0.1670
     18 O11        16.4830  -15.9640   -4.4200 O.3     1  MOL1       -0.4800
     19 C12        15.8080  -15.6560   -5.6040 C.ar    1  MOL1        0.1660
     20 C13        16.2770  -16.1200   -6.8550 C.ar    1  MOL1        0.0120
     21 C21        15.5250  -15.8540   -8.0110 C.ar    1  MOL1       -0.0540
     22 C22        14.3550  -15.0980   -7.9350 C.ar    1  MOL1       -0.0580
     23 C23        13.9210  -14.5990   -6.7070 C.ar    1  MOL1       -0.0160
     24 C24        14.6470  -14.8700   -5.5330 C.ar    1  MOL1        0.1610
     25 C14        17.5690  -16.8970   -6.9830 C.3     1  MOL1        0.0280
     26 N15        17.3600  -18.3110   -6.6130 N.3     1  MOL1       -0.2870
     27 C16        18.5120  -18.8540   -5.8740 C.3     1  MOL1        0.0640
     28 C17        18.8640  -19.8220   -6.9860 C.3     1  MOL1        0.2720
     29 F18        18.6910  -21.1510   -6.6420 F       1  MOL1       -0.2040
     30 F19        20.0790  -19.5530   -7.5960 F       1  MOL1       -0.2040
     31 C20        17.6780  -19.2280   -7.7210 C.3     1  MOL1        0.0640
     32 O25        14.2450  -14.3850   -4.2800 O.3     1  MOL1       -0.4930
     33 C26        13.2230  -14.9710   -3.4790 C.3     1  MOL1        0.0780
@<TRIPOS>BOND
     1    21    22   ar
     2    21    20   ar
     3    22    23   ar
     4    31    28    1
     5    31    26    1
     6    30    28    1
     7    28    29    1
     8    28    27    1
     9    25    20    1
    10    25    26    1
    11    20    19   ar
    12    23    24   ar
    13    26    27    1
    14    19    24   ar
    15    19    18    1
    16    24    32    1
    17    18    17    1
    18    32    33    1
    19    17    15    1
    20    15    16    2
    21    15    14   am
    22    14     8    1
    23     6     5    1
    24     8     1    1
    25     8     9    1
    26     7     5   ar
    27     7     1   ar
    28     5     4   ar
    29     1     2   ar
    30     9    12    1
    31     4     3   ar
    32     2     3   ar
    33    11    12   am
    34    11    10    1
    35    12    13    2
