@<TRIPOS>MOLECULE
L3024_0_out.pdbqt
 33 35 0 0 0
SMALL
GASTEIGER

@<TRIPOS>ATOM
      1 C27        17.6360  -18.6770   -5.5480 C.ar    1  MOL1       -0.0240
      2 C28        18.9090  -18.5490   -6.1300 C.ar    1  MOL1       -0.0570
      3 C29        19.4440  -19.5890   -6.8990 C.ar    1  MOL1       -0.0610
      4 C30        18.7150  -20.7650   -7.0920 C.ar    1  MOL1       -0.0480
      5 C31        17.4450  -20.9040   -6.5200 C.ar    1  MOL1        0.0180
      6 Br32       16.4380  -22.5060   -6.8030 Br      1  MOL1       -0.0510
      7 C33        16.9090  -19.8690   -5.7470 C.ar    1  MOL1       -0.0430
      8  C6        17.0950  -17.5780   -4.6590 C.3     1  MOL1        0.0630
      9  C5        16.5610  -18.1770   -3.3450 C.3     1  MOL1        0.0510
     10  C1        17.4350  -14.9760   -1.3040 C.3     1  MOL1        0.0060
     11  N2        17.3580  -15.9620   -2.3720 N.am    1  MOL1       -0.3590
     12  C3        16.6290  -17.1850   -2.2200 C.2     1  MOL1        0.2220
     13  O4        16.0350  -17.4360   -1.1370 O.2     1  MOL1       -0.2750
     14  N7        16.0390  -16.8350   -5.3550 N.am    1  MOL1       -0.3460
     15  C8        16.3160  -15.7290   -6.2160 C.2     1  MOL1        0.2580
     16  O9        17.5030  -15.3460   -6.3960 O.2     1  MOL1       -0.2710
     17 C10        15.2000  -15.0200   -6.9230 C.3     1  MOL1        0.1670
     18 O11        14.9640  -15.6120   -8.1990 O.3     1  MOL1       -0.4800
     19 C12        14.7910  -16.9890   -8.3570 C.ar    1  MOL1        0.1660
     20 C13        15.8110  -17.7950   -8.9120 C.ar    1  MOL1        0.0120
     21 C21        15.6250  -19.1860   -8.9790 C.ar    1  MOL1       -0.0540
     22 C22        14.4300  -19.7630   -8.5480 C.ar    1  MOL1       -0.0580
     23 C23        13.4050  -18.9600   -8.0470 C.ar    1  MOL1       -0.0160
     24 C24        13.5760  -17.5660   -7.9520 C.ar    1  MOL1        0.1610
     25 C14        17.0980  -17.2010   -9.4390 C.3     1  MOL1        0.0280
     26 N15        17.3540  -17.6630  -10.8180 N.3     1  MOL1       -0.2870
     27 C16        18.4000  -18.6990  -10.8570 C.3     1  MOL1        0.0640
     28 C17        19.3590  -17.8070  -11.6190 C.3     1  MOL1        0.2720
     29 F18        19.6210  -18.2430  -12.9060 F       1  MOL1       -0.2040
     30 F19        20.4930  -17.4650  -10.9010 F       1  MOL1       -0.2040
     31 C20        18.2630  -16.7620  -11.5470 C.3     1  MOL1        0.0640
     32 O25        12.5700  -16.7240   -7.4550 O.3     1  MOL1       -0.4930
     33 C26        11.1990  -17.0890   -7.3400 C.3     1  MOL1        0.0780
@<TRIPOS>BOND
     1    29    28    1
     2    28    31    1
     3    28    30    1
     4    28    27    1
     5    31    26    1
     6    27    26    1
     7    26    25    1
     8    25    20    1
     9    21    20   ar
    10    21    22   ar
    11    20    19   ar
    12    22    23   ar
    13    19    18    1
    14    19    24   ar
    15    18    17    1
    16    23    24   ar
    17    24    32    1
    18    32    33    1
    19     4     3   ar
    20     4     5   ar
    21    17    15    1
    22     3     2   ar
    23     6     5    1
    24     5     7   ar
    25    16    15    2
    26    15    14   am
    27     2     1   ar
    28     7     1   ar
    29     1     8    1
    30    14     8    1
    31     8     9    1
    32     9    12    1
    33    11    12   am
    34    11    10    1
    35    12    13    2
