@<TRIPOS>MOLECULE
L3024_0_out.pdbqt
 33 35 0 0 0
SMALL
GASTEIGER

@<TRIPOS>ATOM
      1 C27         7.1440  -17.2350  -10.4400 C.ar    1  MOL1       -0.0240
      2 C28         7.4970  -17.9320  -11.6100 C.ar    1  MOL1       -0.0570
      3 C29         7.1050  -17.4540  -12.8650 C.ar    1  MOL1       -0.0610
      4 C30         6.3570  -16.2770  -12.9650 C.ar    1  MOL1       -0.0480
      5 C31         6.0020  -15.5720  -11.8090 C.ar    1  MOL1        0.0180
      6 Br32        4.9970  -13.9500  -11.9480 Br      1  MOL1       -0.0510
      7 C33         6.3870  -16.0500  -10.5530 C.ar    1  MOL1       -0.0430
      8  C6         7.5090  -17.7970   -9.0840 C.3     1  MOL1        0.0630
      9  C5         6.7390  -17.0520   -7.9790 C.3     1  MOL1        0.0510
     10  C1         4.1870  -19.9520   -7.4810 C.3     1  MOL1        0.0060
     11  N2         5.3630  -19.1930   -7.8790 N.am    1  MOL1       -0.3590
     12  C3         5.5080  -17.8050   -7.5630 C.2     1  MOL1        0.2220
     13  O4         4.6000  -17.2030   -6.9270 O.2     1  MOL1       -0.2750
     14  N7         8.9560  -17.6940   -8.8640 N.am    1  MOL1       -0.3460
     15  C8         9.8240  -18.8280   -8.9130 C.2     1  MOL1        0.2580
     16  O9         9.3580  -19.9750   -9.1420 O.2     1  MOL1       -0.2710
     17 C10        11.3000  -18.6620   -8.7070 C.3     1  MOL1        0.1670
     18 O11        11.6700  -19.0750   -7.3930 O.3     1  MOL1       -0.4800
     19 C12        12.9010  -19.6790   -7.1250 C.ar    1  MOL1        0.1660
     20 C13        14.0210  -18.9130   -6.7300 C.ar    1  MOL1        0.0120
     21 C21        15.2170  -19.5700   -6.3940 C.ar    1  MOL1       -0.0540
     22 C22        15.3140  -20.9580   -6.4940 C.ar    1  MOL1       -0.0580
     23 C23        14.2230  -21.7080   -6.9320 C.ar    1  MOL1       -0.0160
     24 C24        13.0090  -21.0740   -7.2560 C.ar    1  MOL1        0.1610
     25 C14        13.9690  -17.4030   -6.6610 C.3     1  MOL1        0.0280
     26 N15        15.2310  -16.8200   -7.1590 N.3     1  MOL1       -0.2870
     27 C16        15.6360  -15.6460   -6.3670 C.3     1  MOL1        0.0640
     28 C17        15.4370  -14.6980   -7.5340 C.3     1  MOL1        0.2720
     29 F18        16.6120  -14.1310   -7.9950 F       1  MOL1       -0.2040
     30 F19        14.4110  -13.7880   -7.3440 F       1  MOL1       -0.2040
     31 C20        15.0140  -15.9290   -8.3120 C.3     1  MOL1        0.0640
     32 O25        11.8890  -21.7910   -7.7010 O.3     1  MOL1       -0.4930
     33 C26        11.9170  -23.1520   -8.1170 C.3     1  MOL1        0.0780
@<TRIPOS>BOND
     1     4     3   ar
     2     4     5   ar
     3     3     2   ar
     4     6     5    1
     5     5     7   ar
     6     2     1   ar
     7     7     1   ar
     8     1     8    1
     9    16    15    2
    10     8    14    1
    11     8     9    1
    12    15    14   am
    13    15    17    1
    14    17    18    1
    15    31    28    1
    16    31    26    1
    17    33    32    1
    18    29    28    1
    19     9    12    1
    20    11    12   am
    21    11    10    1
    22    32    24    1
    23    12    13    2
    24    28    30    1
    25    28    27    1
    26    18    19    1
    27    24    19   ar
    28    24    23   ar
    29    26    25    1
    30    26    27    1
    31    19    20   ar
    32    23    22   ar
    33    20    25    1
    34    20    21   ar
    35    22    21   ar
