@<TRIPOS>MOLECULE
L3024_0_out.pdbqt
 33 35 0 0 0
SMALL
GASTEIGER

@<TRIPOS>ATOM
      1 C27        14.4920  -20.1660   -7.6670 C.ar    1  MOL1       -0.0240
      2 C28        14.4470  -20.6300   -6.3400 C.ar    1  MOL1       -0.0570
      3 C29        15.2420  -21.7110   -5.9420 C.ar    1  MOL1       -0.0610
      4 C30        16.0870  -22.3370   -6.8620 C.ar    1  MOL1       -0.0480
      5 C31        16.1440  -21.8830   -8.1840 C.ar    1  MOL1        0.0180
      6 Br32       17.3170  -22.7270   -9.4370 Br      1  MOL1       -0.0510
      7 C33        15.3470  -20.8060   -8.5870 C.ar    1  MOL1       -0.0430
      8  C6        13.5770  -19.0440   -8.1080 C.3     1  MOL1        0.0630
      9  C5        13.2630  -18.1210   -6.9180 C.3     1  MOL1        0.0510
     10  C1        14.7820  -14.7020   -8.0020 C.3     1  MOL1        0.0060
     11  N2        13.9700  -15.9090   -7.9650 N.am    1  MOL1       -0.3590
     12  C3        14.1230  -16.8900   -6.9330 C.2     1  MOL1        0.2220
     13  O4        14.9830  -16.7250   -6.0260 O.2     1  MOL1       -0.2750
     14  N7        12.3410  -19.5910   -8.6770 N.am    1  MOL1       -0.3460
     15  C8        11.6110  -18.9280   -9.7120 C.2     1  MOL1        0.2580
     16  O9        12.0140  -17.8250  -10.1670 O.2     1  MOL1       -0.2710
     17 C10        10.3660  -19.5450  -10.2770 C.3     1  MOL1        0.1670
     18 O11         9.7670  -20.4210   -9.3240 O.3     1  MOL1       -0.4800
     19 C12         8.5650  -21.0860   -9.5820 C.ar    1  MOL1        0.1660
     20 C13         7.3190  -20.4690   -9.3260 C.ar    1  MOL1        0.0120
     21 C21         6.1370  -21.1430   -9.6740 C.ar    1  MOL1       -0.0540
     22 C22         6.1870  -22.4250  -10.2210 C.ar    1  MOL1       -0.0580
     23 C23         7.4170  -23.0520  -10.4270 C.ar    1  MOL1       -0.0160
     24 C24         8.6150  -22.3880  -10.1050 C.ar    1  MOL1        0.1610
     25 C14         7.2230  -19.1020   -8.6850 C.3     1  MOL1        0.0280
     26 N15         6.6020  -18.1380   -9.6160 N.3     1  MOL1       -0.2870
     27 C16         7.6010  -17.5290  -10.5110 C.3     1  MOL1        0.0640
     28 C17         7.4100  -16.1520   -9.9060 C.3     1  MOL1        0.2720
     29 F18         6.8480  -15.2360  -10.7780 F       1  MOL1       -0.2040
     30 F19         8.5250  -15.6770   -9.2360 F       1  MOL1       -0.2040
     31 C20         6.3980  -16.8180   -8.9950 C.3     1  MOL1        0.0640
     32 O25         9.8710  -22.9830  -10.2940 O.3     1  MOL1       -0.4930
     33 C26        10.4110  -24.0070   -9.4650 C.3     1  MOL1        0.0780
@<TRIPOS>BOND
     1    29    28    1
     2    27    28    1
     3    27    26    1
     4    23    22   ar
     5    23    24   ar
     6    32    24    1
     7    32    33    1
     8    17    15    1
     9    17    18    1
    10    22    21   ar
    11    16    15    2
    12    24    19   ar
    13    28    30    1
    14    28    31    1
    15    15    14   am
    16    21    20   ar
    17    26    31    1
    18    26    25    1
    19    19    20   ar
    20    19    18    1
    21     6     5    1
    22    20    25    1
    23    14     8    1
    24     7     5   ar
    25     7     1   ar
    26     5     4   ar
    27     8     1    1
    28     8     9    1
    29    10    11    1
    30    11    12   am
    31     1     2   ar
    32    12     9    1
    33    12    13    2
    34     4     3   ar
    35     2     3   ar
