@<TRIPOS>MOLECULE
L3024_0_out.pdbqt
 33 35 0 0 0
SMALL
GASTEIGER

@<TRIPOS>ATOM
      1 C27        11.0870  -18.7590   -8.9850 C.ar    1  MOL1       -0.0240
      2 C28        10.9810  -19.2020  -10.3160 C.ar    1  MOL1       -0.0570
      3 C29         9.8440  -18.9020  -11.0730 C.ar    1  MOL1       -0.0610
      4 C30         8.8030  -18.1580  -10.5110 C.ar    1  MOL1       -0.0480
      5 C31         8.8970  -17.7080   -9.1890 C.ar    1  MOL1        0.0180
      6 Br32        7.4800  -16.6720   -8.4270 Br      1  MOL1       -0.0510
      7 C33        10.0300  -18.0110   -8.4270 C.ar    1  MOL1       -0.0430
      8  C6        12.2870  -19.1490   -8.1490 C.3     1  MOL1        0.0630
      9  C5        11.8250  -19.8220   -6.8440 C.3     1  MOL1        0.0510
     10  C1        12.4120  -23.5500   -7.8070 C.3     1  MOL1        0.0060
     11  N2        11.9810  -22.1600   -7.8420 N.am    1  MOL1       -0.3590
     12  C3        12.2740  -21.2530   -6.7730 C.2     1  MOL1        0.2220
     13  O4        12.9150  -21.6510   -5.7630 O.2     1  MOL1       -0.2750
     14  N7        13.1100  -17.9700   -7.8590 N.am    1  MOL1       -0.3460
     15  C8        14.3030  -17.6670   -8.5850 C.2     1  MOL1        0.2580
     16  O9        14.6950  -18.4280   -9.5090 O.2     1  MOL1       -0.2710
     17 C10        15.0930  -16.4330   -8.2650 C.3     1  MOL1        0.1670
     18 O11        16.4900  -16.6880   -8.3940 O.3     1  MOL1       -0.4800
     19 C12        17.2010  -17.4180   -7.4380 C.ar    1  MOL1        0.1660
     20 C13        17.2860  -16.9790   -6.0960 C.ar    1  MOL1        0.0120
     21 C21        17.9440  -17.7830   -5.1520 C.ar    1  MOL1       -0.0540
     22 C22        18.5500  -18.9790   -5.5390 C.ar    1  MOL1       -0.0580
     23 C23        18.5080  -19.3860   -6.8730 C.ar    1  MOL1       -0.0160
     24 C24        17.8370  -18.6060   -7.8340 C.ar    1  MOL1        0.1610
     25 C14        16.6870  -15.6630   -5.6500 C.3     1  MOL1        0.0280
     26 N15        15.7940  -15.8690   -4.4920 N.3     1  MOL1       -0.2870
     27 C16        14.3780  -15.8770   -4.8950 C.3     1  MOL1        0.0640
     28 C17        14.0790  -14.5990   -4.1350 C.3     1  MOL1        0.2720
     29 F18        13.2260  -14.7790   -3.0600 F       1  MOL1       -0.2040
     30 F19        13.7380  -13.5320   -4.9500 F       1  MOL1       -0.2040
     31 C20        15.5460  -14.6190   -3.7520 C.3     1  MOL1        0.0640
     32 O25        17.7730  -18.9790   -9.1840 O.3     1  MOL1       -0.4930
     33 C26        18.2400  -20.2210   -9.6990 C.3     1  MOL1        0.0780
@<TRIPOS>BOND
     1     3     4   ar
     2     3     2   ar
     3     4     5   ar
     4     2     1   ar
     5    33    32    1
     6    16    15    2
     7     5     6    1
     8     5     7   ar
     9    32    24    1
    10     1     7   ar
    11     1     8    1
    12    15    17    1
    13    15    14   am
    14    18    17    1
    15    18    19    1
    16     8    14    1
    17     8     9    1
    18    11    10    1
    19    11    12   am
    20    24    19   ar
    21    24    23   ar
    22    19    20   ar
    23    23    22   ar
    24     9    12    1
    25    12    13    2
    26    20    25    1
    27    20    21   ar
    28    25    26    1
    29    22    21   ar
    30    30    28    1
    31    27    26    1
    32    27    28    1
    33    26    31    1
    34    28    31    1
    35    28    29    1
