@<TRIPOS>MOLECULE
L3024_0_out.pdbqt
 33 35 0 0 0
SMALL
GASTEIGER

@<TRIPOS>ATOM
      1 C27         9.6160  -18.1780   -9.1620 C.ar    1  MOL1       -0.0240
      2 C28         9.2270  -17.1900   -8.2400 C.ar    1  MOL1       -0.0570
      3 C29         8.2170  -16.2780   -8.5640 C.ar    1  MOL1       -0.0610
      4 C30         7.5860  -16.3430   -9.8100 C.ar    1  MOL1       -0.0480
      5 C31         7.9620  -17.3240  -10.7350 C.ar    1  MOL1        0.0180
      6 Br32        7.0840  -17.4260  -12.4320 Br      1  MOL1       -0.0510
      7 C33         8.9750  -18.2330  -10.4170 C.ar    1  MOL1       -0.0430
      8  C6        10.7590  -19.1140   -8.8320 C.3     1  MOL1        0.0630
      9  C5        10.2450  -20.3000   -7.9960 C.3     1  MOL1        0.0510
     10  C1         7.2630  -22.2630   -9.5570 C.3     1  MOL1        0.0060
     11  N2         8.0430  -21.3380   -8.7460 N.am    1  MOL1       -0.3590
     12  C3         9.4700  -21.2720   -8.8390 C.2     1  MOL1        0.2220
     13  O4        10.0880  -22.0320   -9.6340 O.2     1  MOL1       -0.2750
     14  N7        11.8140  -18.3940   -8.1110 N.am    1  MOL1       -0.3460
     15  C8        13.1210  -18.1980   -8.6550 C.2     1  MOL1        0.2580
     16  O9        13.4120  -18.6590   -9.7910 O.2     1  MOL1       -0.2710
     17 C10        14.1550  -17.4310   -7.8870 C.3     1  MOL1        0.1670
     18 O11        14.4330  -18.0740   -6.6450 O.3     1  MOL1       -0.4800
     19 C12        15.7390  -18.3050   -6.2060 C.ar    1  MOL1        0.1660
     20 C13        16.4440  -17.3320   -5.4620 C.ar    1  MOL1        0.0120
     21 C21        17.7250  -17.6380   -4.9730 C.ar    1  MOL1       -0.0540
     22 C22        18.3160  -18.8690   -5.2580 C.ar    1  MOL1       -0.0580
     23 C23        17.6390  -19.8090   -6.0350 C.ar    1  MOL1       -0.0160
     24 C24        16.3460  -19.5320   -6.5190 C.ar    1  MOL1        0.1610
     25 C14        15.8570  -15.9670   -5.1790 C.3     1  MOL1        0.0280
     26 N15        15.8560  -15.6970   -3.7260 N.3     1  MOL1       -0.2870
     27 C16        14.7910  -16.4460   -3.0370 C.3     1  MOL1        0.0640
     28 C17        14.0430  -15.1820   -2.6640 C.3     1  MOL1        0.2720
     29 F18        14.0180  -14.9320   -1.3030 F       1  MOL1       -0.2040
     30 F19        12.8070  -15.0630   -3.2780 F       1  MOL1       -0.2040
     31 C20        15.1510  -14.4470   -3.3930 C.3     1  MOL1        0.0640
     32 O25        15.6320  -20.4500   -7.3030 O.3     1  MOL1       -0.4930
     33 C26        15.8760  -21.8520   -7.3260 C.3     1  MOL1        0.0780
@<TRIPOS>BOND
     1     6     5    1
     2     5     7   ar
     3     5     4   ar
     4     7     1   ar
     5     4     3   ar
     6    16    15    2
     7    13    12    2
     8    10    11    1
     9     1     8    1
    10     1     2   ar
    11    12    11   am
    12    12     9    1
    13     8    14    1
    14     8     9    1
    15    15    14   am
    16    15    17    1
    17     3     2   ar
    18    17    18    1
    19    33    32    1
    20    32    24    1
    21    18    19    1
    22    24    19   ar
    23    24    23   ar
    24    19    20   ar
    25    23    22   ar
    26    20    25    1
    27    20    21   ar
    28    22    21   ar
    29    25    26    1
    30    26    31    1
    31    26    27    1
    32    31    28    1
    33    30    28    1
    34    27    28    1
    35    28    29    1
