@<TRIPOS>MOLECULE
L3024_0_out.pdbqt
 33 35 0 0 0
SMALL
GASTEIGER

@<TRIPOS>ATOM
      1 C27         7.6600  -17.9770   -9.3520 C.ar    1  MOL1       -0.0240
      2 C28         7.6270  -17.1690  -10.5030 C.ar    1  MOL1       -0.0570
      3 C29         6.7090  -16.1190  -10.6060 C.ar    1  MOL1       -0.0610
      4 C30         5.8150  -15.8650   -9.5620 C.ar    1  MOL1       -0.0480
      5 C31         5.8390  -16.6580   -8.4090 C.ar    1  MOL1        0.0180
      6 Br32        4.6300  -16.2950   -6.9710 Br      1  MOL1       -0.0510
      7 C33         6.7520  -17.7120   -8.3060 C.ar    1  MOL1       -0.0430
      8  C6         8.6070  -19.1550   -9.2790 C.3     1  MOL1        0.0630
      9  C5         7.9060  -20.3540   -8.6140 C.3     1  MOL1        0.0510
     10  C1         9.4480  -22.9310  -11.0950 C.3     1  MOL1        0.0060
     11  N2         9.1980  -21.7130  -10.3380 N.am    1  MOL1       -0.3590
     12  C3         8.1320  -21.6210   -9.3870 C.2     1  MOL1        0.2220
     13  O4         7.3740  -22.6100   -9.1890 O.2     1  MOL1       -0.2750
     14  N7         9.8180  -18.7890   -8.5380 N.am    1  MOL1       -0.3460
     15  C8        11.0710  -18.5470   -9.1840 C.2     1  MOL1        0.2580
     16  O9        11.1720  -18.6550  -10.4340 O.2     1  MOL1       -0.2710
     17 C10        12.2730  -18.1500   -8.3810 C.3     1  MOL1        0.1670
     18 O11        13.1860  -19.2390   -8.2760 O.3     1  MOL1       -0.4800
     19 C12        13.6680  -19.6880   -7.0440 C.ar    1  MOL1        0.1660
     20 C13        14.8280  -19.1260   -6.4640 C.ar    1  MOL1        0.0120
     21 C21        15.2320  -19.5520   -5.1870 C.ar    1  MOL1       -0.0540
     22 C22        14.5250  -20.5510   -4.5180 C.ar    1  MOL1       -0.0580
     23 C23        13.4090  -21.1390   -5.1130 C.ar    1  MOL1       -0.0160
     24 C24        12.9740  -20.7150   -6.3830 C.ar    1  MOL1        0.1610
     25 C14        15.6510  -18.0790   -7.1830 C.3     1  MOL1        0.0280
     26 N15        16.6370  -18.7220   -8.0750 N.3     1  MOL1       -0.2870
     27 C16        17.9230  -18.0040   -8.0670 C.3     1  MOL1        0.0640
     28 C17        17.7810  -17.5830   -9.5170 C.3     1  MOL1        0.2720
     29 F18        18.7140  -18.1640  -10.3580 F       1  MOL1       -0.2040
     30 F19        17.6430  -16.2160   -9.6900 F       1  MOL1       -0.2040
     31 C20        16.4570  -18.3220   -9.4820 C.3     1  MOL1        0.0640
     32 O25        11.8580  -21.2810   -7.0160 O.3     1  MOL1       -0.4930
     33 C26        11.9250  -22.3100   -7.9980 C.3     1  MOL1        0.0780
@<TRIPOS>BOND
     1    10    11    1
     2     3     2   ar
     3     3     4   ar
     4     2     1   ar
     5    16    15    2
     6    29    28    1
     7    11    12   am
     8    30    28    1
     9     4     5   ar
    10    28    31    1
    11    28    27    1
    12    31    26    1
    13    12    13    2
    14    12     9    1
    15     1     8    1
    16     1     7   ar
    17     8     9    1
    18     8    14    1
    19    15    14   am
    20    15    17    1
    21     5     7   ar
    22     5     6    1
    23    17    18    1
    24    18    19    1
    25    26    27    1
    26    26    25    1
    27    33    32    1
    28    25    20    1
    29    19    20   ar
    30    19    24   ar
    31    32    24    1
    32    20    21   ar
    33    24    23   ar
    34    21    22   ar
    35    23    22   ar
