@<TRIPOS>MOLECULE
L3024_0_out.pdbqt
 33 35 0 0 0
SMALL
GASTEIGER

@<TRIPOS>ATOM
      1 C27         5.4880  -15.1810  -11.0050 C.ar    1  MOL1       -0.0240
      2 C28         4.5040  -14.9180  -10.0350 C.ar    1  MOL1       -0.0570
      3 C29         3.5970  -13.8680  -10.2140 C.ar    1  MOL1       -0.0610
      4 C30         3.6640  -13.0710  -11.3610 C.ar    1  MOL1       -0.0480
      5 C31         4.6360  -13.3240  -12.3350 C.ar    1  MOL1        0.0180
      6 Br32        4.7130  -12.2470  -13.9140 Br      1  MOL1       -0.0510
      7 C33         5.5480  -14.3700  -12.1570 C.ar    1  MOL1       -0.0430
      8  C6         6.5100  -16.2720  -10.7700 C.3     1  MOL1        0.0630
      9  C5         6.9050  -16.9220  -12.1080 C.3     1  MOL1        0.0510
     10  C1         9.9620  -19.2270  -11.3900 C.3     1  MOL1        0.0060
     11  N2         9.1330  -18.0510  -11.6090 N.am    1  MOL1       -0.3590
     12  C3         7.7350  -18.1560  -11.8970 C.2     1  MOL1        0.2220
     13  O4         7.1880  -19.2900  -11.9730 O.2     1  MOL1       -0.2750
     14  N7         5.9770  -17.2770   -9.8450 N.am    1  MOL1       -0.3460
     15  C8         6.7050  -17.7360   -8.7040 C.2     1  MOL1        0.2580
     16  O9         7.8560  -17.2850   -8.4620 O.2     1  MOL1       -0.2710
     17 C10         6.1020  -18.7460   -7.7750 C.3     1  MOL1        0.1670
     18 O11         6.8750  -19.9440   -7.7710 O.3     1  MOL1       -0.4800
     19 C12         6.7970  -20.8800   -8.8060 C.ar    1  MOL1        0.1660
     20 C13         5.5500  -21.2880   -9.3310 C.ar    1  MOL1        0.0120
     21 C21         5.5220  -22.1700  -10.4240 C.ar    1  MOL1       -0.0540
     22 C22         6.7080  -22.6770  -10.9560 C.ar    1  MOL1       -0.0580
     23 C23         7.9360  -22.3120  -10.4040 C.ar    1  MOL1       -0.0160
     24 C24         7.9900  -21.4140   -9.3210 C.ar    1  MOL1        0.1610
     25 C14         4.2420  -20.8020   -8.7470 C.3     1  MOL1        0.0280
     26 N15         3.3070  -21.9310   -8.5660 N.3     1  MOL1       -0.2870
     27 C16         1.9880  -21.6410   -9.1540 C.3     1  MOL1        0.0640
     28 C17         1.3030  -21.6400   -7.8010 C.3     1  MOL1        0.2720
     29 F18         0.4090  -22.6820   -7.6300 F       1  MOL1       -0.2040
     30 F19         0.8010  -20.4030   -7.4320 F       1  MOL1       -0.2040
     31 C20         2.6800  -21.9250   -7.2330 C.3     1  MOL1        0.0640
     32 O25         9.2030  -21.0230   -8.7370 O.3     1  MOL1       -0.4930
     33 C26        10.4080  -21.7780   -8.8010 C.3     1  MOL1        0.0780
@<TRIPOS>BOND
     1     6     5    1
     2     5     7   ar
     3     5     4   ar
     4     7     1   ar
     5     9    12    1
     6     9     8    1
     7    13    12    2
     8    12    11   am
     9    11    10    1
    10     4     3   ar
    11     1     8    1
    12     1     2   ar
    13    22    21   ar
    14    22    23   ar
    15     8    14    1
    16    21    20   ar
    17    23    24   ar
    18     3     2   ar
    19    14    15   am
    20    20    19   ar
    21    20    25    1
    22    24    19   ar
    23    24    32    1
    24    27    26    1
    25    27    28    1
    26    19    18    1
    27    33    32    1
    28    25    26    1
    29    15    16    2
    30    15    17    1
    31    26    31    1
    32    28    29    1
    33    28    30    1
    34    28    31    1
    35    17    18    1
