@<TRIPOS>MOLECULE
L3024_0_out.pdbqt
 33 35 0 0 0
SMALL
GASTEIGER

@<TRIPOS>ATOM
      1 C27        13.6500  -19.8750   -7.3460 C.ar    1  MOL1       -0.0240
      2 C28        14.3300  -20.1090   -6.1370 C.ar    1  MOL1       -0.0570
      3 C29        14.3090  -21.3780   -5.5480 C.ar    1  MOL1       -0.0610
      4 C30        13.6100  -22.4230   -6.1580 C.ar    1  MOL1       -0.0480
      5 C31        12.9320  -22.2040   -7.3620 C.ar    1  MOL1        0.0180
      6 Br32       11.9940  -23.6410   -8.2080 Br      1  MOL1       -0.0510
      7 C33        12.9460  -20.9360   -7.9510 C.ar    1  MOL1       -0.0430
      8  C6        13.6170  -18.4820   -7.9390 C.3     1  MOL1        0.0630
      9  C5        12.6410  -18.4390   -9.1290 C.3     1  MOL1        0.0510
     10  C1         8.8680  -17.4730   -9.1680 C.3     1  MOL1        0.0060
     11  N2        10.1540  -18.0580   -9.5200 N.am    1  MOL1       -0.3590
     12  C3        11.3320  -17.8130   -8.7450 C.2     1  MOL1        0.2220
     13  O4        11.2770  -17.0680   -7.7290 O.2     1  MOL1       -0.2750
     14  N7        14.9620  -18.0770   -8.3590 N.am    1  MOL1       -0.3460
     15  C8        15.4210  -16.7260   -8.2710 C.2     1  MOL1        0.2580
     16  O9        14.6600  -15.8240   -7.8290 O.2     1  MOL1       -0.2710
     17 C10        16.8160  -16.3700   -8.6900 C.3     1  MOL1        0.1670
     18 O11        17.6580  -16.2270   -7.5490 O.3     1  MOL1       -0.4800
     19 C12        17.7290  -17.2040   -6.5520 C.ar    1  MOL1        0.1660
     20 C13        17.2820  -16.9390   -5.2360 C.ar    1  MOL1        0.0120
     21 C21        17.2980  -17.9740   -4.2860 C.ar    1  MOL1       -0.0540
     22 C22        17.7920  -19.2350   -4.6210 C.ar    1  MOL1       -0.0580
     23 C23        18.2790  -19.4790   -5.9050 C.ar    1  MOL1       -0.0160
     24 C24        18.2550  -18.4640   -6.8790 C.ar    1  MOL1        0.1610
     25 C14        16.7890  -15.5700   -4.8230 C.3     1  MOL1        0.0280
     26 N15        15.6500  -15.6920   -3.8900 N.3     1  MOL1       -0.2870
     27 C16        14.3980  -15.9990   -4.6020 C.3     1  MOL1        0.0640
     28 C17        13.7780  -14.6640   -4.2370 C.3     1  MOL1        0.2720
     29 F18        12.6960  -14.7700   -3.3800 F       1  MOL1       -0.2040
     30 F19        13.5530  -13.8380   -5.3260 F       1  MOL1       -0.2040
     31 C20        15.0870  -14.3810   -3.5260 C.3     1  MOL1        0.0640
     32 O25        18.7350  -18.6680   -8.1810 O.3     1  MOL1       -0.4930
     33 C26        18.2110  -19.6290   -9.0910 C.3     1  MOL1        0.0780
@<TRIPOS>BOND
     1    11    10    1
     2    11    12   am
     3     9    12    1
     4     9     8    1
     5    33    32    1
     6    12    13    2
     7    17    15    1
     8    17    18    1
     9    14    15   am
    10    14     8    1
    11    15    16    2
    12     6     5    1
    13    32    24    1
    14     7     5   ar
    15     7     1   ar
    16     8     1    1
    17    18    19    1
    18     5     4   ar
    19     1     2   ar
    20    24    19   ar
    21    24    23   ar
    22    19    20   ar
    23     4     3   ar
    24     2     3   ar
    25    23    22   ar
    26    30    28    1
    27    20    25    1
    28    20    21   ar
    29    25    26    1
    30    22    21   ar
    31    27    28    1
    32    27    26    1
    33    28    31    1
    34    28    29    1
    35    26    31    1
