@<TRIPOS>MOLECULE
L3024_0_out.pdbqt
 33 35 0 0 0
SMALL
GASTEIGER

@<TRIPOS>ATOM
      1 C27         7.0450  -19.3170   -9.9420 C.ar    1  MOL1       -0.0240
      2 C28         7.1800  -20.3360  -10.9020 C.ar    1  MOL1       -0.0570
      3 C29         6.5710  -21.5800  -10.7030 C.ar    1  MOL1       -0.0610
      4 C30         5.8240  -21.8190   -9.5460 C.ar    1  MOL1       -0.0480
      5 C31         5.6790  -20.8120   -8.5850 C.ar    1  MOL1        0.0180
      6 Br32        4.6380  -21.1330   -7.0120 Br      1  MOL1       -0.0510
      7 C33         6.2900  -19.5690   -8.7780 C.ar    1  MOL1       -0.0430
      8  C6         7.7650  -17.9990  -10.1300 C.3     1  MOL1        0.0630
      9  C5         8.2860  -17.4850   -8.7750 C.3     1  MOL1        0.0510
     10  C1        11.0650  -19.8580   -7.4270 C.3     1  MOL1        0.0060
     11  N2         9.7660  -19.2820   -7.7420 N.am    1  MOL1       -0.3590
     12  C3         9.6410  -18.0480   -8.4570 C.2     1  MOL1        0.2220
     13  O4        10.6730  -17.4250   -8.8280 O.2     1  MOL1       -0.2750
     14  N7         6.8700  -17.0140  -10.7470 N.am    1  MOL1       -0.3460
     15  C8         6.8200  -16.7990  -12.1590 C.2     1  MOL1        0.2580
     16  O9         7.5680  -17.4580  -12.9290 O.2     1  MOL1       -0.2710
     17 C10         5.8680  -15.7970  -12.7390 C.3     1  MOL1        0.1670
     18 O11         5.7110  -14.6880  -11.8580 O.3     1  MOL1       -0.4800
     19 C12         4.4580  -14.1390  -11.5710 C.ar    1  MOL1        0.1660
     20 C13         3.8040  -14.4090  -10.3470 C.ar    1  MOL1        0.0120
     21 C21         2.5830  -13.7730  -10.0690 C.ar    1  MOL1       -0.0540
     22 C22         1.9960  -12.9240  -11.0060 C.ar    1  MOL1       -0.0580
     23 C23         2.6190  -12.6980  -12.2340 C.ar    1  MOL1       -0.0160
     24 C24         3.8530  -13.3080  -12.5280 C.ar    1  MOL1        0.1610
     25 C14         4.3830  -15.3660   -9.3290 C.3     1  MOL1        0.0280
     26 N15         4.0620  -14.9170   -7.9590 N.3     1  MOL1       -0.2870
     27 C16         5.0650  -15.3830   -6.9860 C.3     1  MOL1        0.0640
     28 C17         4.0690  -16.2830   -6.2810 C.3     1  MOL1        0.2720
     29 F18         3.7770  -15.8820   -4.9880 F       1  MOL1       -0.2040
     30 F19         4.3570  -17.6330   -6.3980 F       1  MOL1       -0.2040
     31 C20         3.0690  -15.7890   -7.3070 C.3     1  MOL1        0.0640
     32 O25         4.5100  -13.1080  -13.7510 O.3     1  MOL1       -0.4930
     33 C26         4.7260  -11.8360  -14.3510 C.3     1  MOL1        0.0780
@<TRIPOS>BOND
     1    33    32    1
     2    32    24    1
     3    16    15    2
     4    17    15    1
     5    17    18    1
     6    24    23   ar
     7    24    19   ar
     8    23    22   ar
     9    15    14   am
    10    18    19    1
    11    19    20   ar
    12    22    21   ar
    13     2     3   ar
    14     2     1   ar
    15    14     8    1
    16     3     4   ar
    17    20    21   ar
    18    20    25    1
    19     8     1    1
    20     8     9    1
    21     1     7   ar
    22     4     5   ar
    23    25    26    1
    24    13    12    2
    25     7     5   ar
    26     9    12    1
    27     5     6    1
    28    12    11   am
    29    26    31    1
    30    26    27    1
    31    11    10    1
    32    31    28    1
    33    27    28    1
    34    30    28    1
    35    28    29    1
