@<TRIPOS>MOLECULE
L3024_0_out.pdbqt
 33 35 0 0 0
SMALL
GASTEIGER

@<TRIPOS>ATOM
      1 C27         8.7660  -17.7970   -9.6470 C.ar    1  MOL1       -0.0240
      2 C28         8.2670  -17.7620   -8.3320 C.ar    1  MOL1       -0.0570
      3 C29         7.0690  -17.0960   -8.0480 C.ar    1  MOL1       -0.0610
      4 C30         6.3610  -16.4590   -9.0710 C.ar    1  MOL1       -0.0480
      5 C31         6.8460  -16.4890  -10.3830 C.ar    1  MOL1        0.0180
      6 Br32        5.8640  -15.6370  -11.7870 Br      1  MOL1       -0.0510
      7 C33         8.0450  -17.1500  -10.6700 C.ar    1  MOL1       -0.0430
      8  C6        10.0980  -18.4570   -9.9330 C.3     1  MOL1        0.0630
      9  C5         9.8770  -19.8020  -10.6470 C.3     1  MOL1        0.0510
     10  C1         7.0760  -22.0050   -9.0730 C.3     1  MOL1        0.0060
     11  N2         7.7790  -21.0460   -9.9140 N.am    1  MOL1       -0.3590
     12  C3         9.1790  -20.7900   -9.7570 C.2     1  MOL1        0.2220
     13  O4         9.8380  -21.3960   -8.8690 O.2     1  MOL1       -0.2750
     14  N7        10.8480  -18.6500   -8.6870 N.am    1  MOL1       -0.3460
     15  C8        12.2760  -18.6490   -8.6410 C.2     1  MOL1        0.2580
     16  O9        12.9460  -18.4890   -9.6960 O.2     1  MOL1       -0.2710
     17 C10        12.9930  -18.8260   -7.3360 C.3     1  MOL1        0.1670
     18 O11        14.2980  -18.2560   -7.4020 O.3     1  MOL1       -0.4800
     19 C12        15.2360  -18.4320   -6.3820 C.ar    1  MOL1        0.1660
     20 C13        15.2230  -17.6160   -5.2270 C.ar    1  MOL1        0.0120
     21 C21        16.1350  -17.8790   -4.1920 C.ar    1  MOL1       -0.0540
     22 C22        17.0750  -18.9020   -4.3190 C.ar    1  MOL1       -0.0580
     23 C23        17.1190  -19.6730   -5.4800 C.ar    1  MOL1       -0.0160
     24 C24        16.2030  -19.4410   -6.5230 C.ar    1  MOL1        0.1610
     25 C14        14.2540  -16.4650   -5.0770 C.3     1  MOL1        0.0280
     26 N15        14.8540  -15.2150   -5.5870 N.3     1  MOL1       -0.2870
     27 C16        13.8820  -14.4240   -6.3610 C.3     1  MOL1        0.0640
     28 C17        14.6490  -14.6130   -7.6550 C.3     1  MOL1        0.2720
     29 F18        15.1980  -13.4430   -8.1520 F       1  MOL1       -0.2040
     30 F19        13.9670  -15.3600   -8.6020 F       1  MOL1       -0.2040
     31 C20        15.6190  -15.4320   -6.8270 C.3     1  MOL1        0.0640
     32 O25        16.2150  -20.1930   -7.7070 O.3     1  MOL1       -0.4930
     33 C26        16.3740  -21.6070   -7.7620 C.3     1  MOL1        0.0780
@<TRIPOS>BOND
     1     6     5    1
     2     7     5   ar
     3     7     1   ar
     4     9     8    1
     5     9    12    1
     6     5     4   ar
     7     8     1    1
     8     8    14    1
     9    11    12   am
    10    11    10    1
    11    12    13    2
    12    16    15    2
    13     1     2   ar
    14     4     3   ar
    15    14    15   am
    16    15    17    1
    17    30    28    1
    18     2     3   ar
    19    29    28    1
    20    33    32    1
    21    32    24    1
    22    28    31    1
    23    28    27    1
    24    18    17    1
    25    18    19    1
    26    31    26    1
    27    24    19   ar
    28    24    23   ar
    29    19    20   ar
    30    27    26    1
    31    26    25    1
    32    23    22   ar
    33    20    25    1
    34    20    21   ar
    35    22    21   ar
