@<TRIPOS>MOLECULE
L3024_0_out.pdbqt
 33 35 0 0 0
SMALL
GASTEIGER

@<TRIPOS>ATOM
      1 C27        10.8460  -17.5460   -8.5620 C.ar    1  MOL1       -0.0240
      2 C28        10.1470  -16.6340   -7.7490 C.ar    1  MOL1       -0.0570
      3 C29         8.8000  -16.3520   -7.9990 C.ar    1  MOL1       -0.0610
      4 C30         8.1380  -16.9740   -9.0600 C.ar    1  MOL1       -0.0480
      5 C31         8.8200  -17.8850   -9.8750 C.ar    1  MOL1        0.0180
      6 Br32        7.9060  -18.7530  -11.3140 Br      1  MOL1       -0.0510
      7 C33        10.1680  -18.1660   -9.6320 C.ar    1  MOL1       -0.0430
      8  C6        12.3210  -17.7910   -8.3310 C.3     1  MOL1        0.0630
      9  C5        12.6300  -19.2940   -8.4480 C.3     1  MOL1        0.0510
     10  C1        13.3940  -21.1090   -5.0870 C.3     1  MOL1        0.0060
     11  N2        13.5550  -20.4300   -6.3650 N.am    1  MOL1       -0.3590
     12  C3        12.4300  -20.0010   -7.1390 C.2     1  MOL1        0.2220
     13  O4        11.2590  -20.2130   -6.7220 O.2     1  MOL1       -0.2750
     14  N7        12.7200  -17.2830   -7.0140 N.am    1  MOL1       -0.3460
     15  C8        13.5630  -16.1400   -6.8540 C.2     1  MOL1        0.2580
     16  O9        14.0050  -15.5300   -7.8630 O.2     1  MOL1       -0.2710
     17 C10        13.9190  -15.6470   -5.4830 C.3     1  MOL1        0.1670
     18 O11        15.2820  -15.9410   -5.1850 O.3     1  MOL1       -0.4800
     19 C12        15.6590  -17.1100   -4.5190 C.ar    1  MOL1        0.1660
     20 C13        15.4030  -17.2800   -3.1390 C.ar    1  MOL1        0.0120
     21 C21        15.7280  -18.5020   -2.5270 C.ar    1  MOL1       -0.0540
     22 C22        16.3390  -19.5200   -3.2590 C.ar    1  MOL1       -0.0580
     23 C23        16.6360  -19.3320   -4.6090 C.ar    1  MOL1       -0.0160
     24 C24        16.3020  -18.1240   -5.2490 C.ar    1  MOL1        0.1610
     25 C14        14.7910  -16.1800   -2.3010 C.3     1  MOL1        0.0280
     26 N15        15.5980  -15.9470   -1.0860 N.3     1  MOL1       -0.2870
     27 C16        14.8260  -15.2390   -0.0500 C.3     1  MOL1        0.0640
     28 C17        15.6990  -14.0040   -0.1400 C.3     1  MOL1        0.2720
     29 F18        16.4440  -13.7660    1.0030 F       1  MOL1       -0.2040
     30 F19        15.0370  -12.8860   -0.6210 F       1  MOL1       -0.2040
     31 C20        16.4610  -14.7600   -1.2110 C.3     1  MOL1        0.0640
     32 O25        16.5840  -17.8940   -6.6030 O.3     1  MOL1       -0.4930
     33 C26        16.4560  -18.8720   -7.6290 C.3     1  MOL1        0.0780
@<TRIPOS>BOND
     1     6     5    1
     2     5     7   ar
     3     5     4   ar
     4     7     1   ar
     5     4     3   ar
     6     1     8    1
     7     1     2   ar
     8     9     8    1
     9     9    12    1
    10     8    14    1
    11     3     2   ar
    12    16    15    2
    13    33    32    1
    14    12    13    2
    15    12    11   am
    16    14    15   am
    17    15    17    1
    18    32    24    1
    19    11    10    1
    20    17    18    1
    21    24    23   ar
    22    24    19   ar
    23    18    19    1
    24    23    22   ar
    25    19    20   ar
    26    22    21   ar
    27    20    21   ar
    28    20    25    1
    29    25    26    1
    30    31    26    1
    31    31    28    1
    32    26    27    1
    33    30    28    1
    34    28    27    1
    35    28    29    1
