@<TRIPOS>MOLECULE
L3024_0_out.pdbqt
 33 35 0 0 0
SMALL
GASTEIGER

@<TRIPOS>ATOM
      1 C27        15.9800  -17.7860   -6.0260 C.ar    1  MOL1       -0.0240
      2 C28        17.3600  -18.0090   -6.1840 C.ar    1  MOL1       -0.0570
      3 C29        18.0640  -18.7720   -5.2470 C.ar    1  MOL1       -0.0610
      4 C30        17.4000  -19.3190   -4.1460 C.ar    1  MOL1       -0.0480
      5 C31        16.0270  -19.1080   -3.9790 C.ar    1  MOL1        0.0180
      6 Br32       15.1140  -19.8760   -2.4830 Br      1  MOL1       -0.0510
      7 C33        15.3200  -18.3410   -4.9110 C.ar    1  MOL1       -0.0430
      8  C6        15.2400  -16.8990   -7.0040 C.3     1  MOL1        0.0630
      9  C5        15.6170  -15.4250   -6.7690 C.3     1  MOL1        0.0510
     10  C1        14.0650  -14.1940   -3.4150 C.3     1  MOL1        0.0060
     11  N2        14.9440  -14.8300   -4.3850 N.am    1  MOL1       -0.3590
     12  C3        14.6850  -14.7680   -5.7920 C.2     1  MOL1        0.2220
     13  O4        13.6690  -14.1550   -6.2220 O.2     1  MOL1       -0.2750
     14  N7        13.7920  -17.0900   -6.8680 N.am    1  MOL1       -0.3460
     15  C8        12.9830  -17.6160   -7.9220 C.2     1  MOL1        0.2580
     16  O9        13.5030  -17.9280   -9.0260 O.2     1  MOL1       -0.2710
     17 C10        11.5110  -17.8150   -7.7210 C.3     1  MOL1        0.1670
     18 O11        11.2620  -19.0430   -7.0400 O.3     1  MOL1       -0.4800
     19 C12        10.9490  -20.2200   -7.7240 C.ar    1  MOL1        0.1660
     20 C13         9.7110  -20.3710   -8.3920 C.ar    1  MOL1        0.0120
     21 C21         9.4700  -21.5390   -9.1330 C.ar    1  MOL1       -0.0540
     22 C22        10.4190  -22.5610   -9.1720 C.ar    1  MOL1       -0.0580
     23 C23        11.6180  -22.4320   -8.4710 C.ar    1  MOL1       -0.0160
     24 C24        11.8900  -21.2620   -7.7380 C.ar    1  MOL1        0.1610
     25 C14         8.6380  -19.3070   -8.3290 C.3     1  MOL1        0.0280
     26 N15         8.0700  -19.0670   -9.6710 N.3     1  MOL1       -0.2870
     27 C16         8.8590  -18.0760  -10.4230 C.3     1  MOL1        0.0640
     28 C17         7.7290  -17.0670  -10.4230 C.3     1  MOL1        0.2720
     29 F18         7.2040  -16.8190  -11.6800 F       1  MOL1       -0.2040
     30 F19         8.0050  -15.9210   -9.6940 F       1  MOL1       -0.2040
     31 C20         6.9530  -18.1070   -9.6380 C.3     1  MOL1        0.0640
     32 O25        13.0830  -21.0930   -7.0200 O.3     1  MOL1       -0.4930
     33 C26        13.2410  -21.4000   -5.6380 C.3     1  MOL1        0.0780
@<TRIPOS>BOND
     1    29    28    1
     2    28    27    1
     3    28    30    1
     4    28    31    1
     5    27    26    1
     6    26    31    1
     7    26    25    1
     8    22    21   ar
     9    22    23   ar
    10    21    20   ar
    11    16    15    2
    12    23    24   ar
    13    20    25    1
    14    20    19   ar
    15    15    17    1
    16    15    14   am
    17    24    19   ar
    18    24    32    1
    19    19    18    1
    20    17    18    1
    21    32    33    1
    22     8    14    1
    23     8     9    1
    24     8     1    1
    25     9    12    1
    26    13    12    2
    27     2     1   ar
    28     2     3   ar
    29     1     7   ar
    30    12    11   am
    31     3     4   ar
    32     7     5   ar
    33    11    10    1
    34     4     5   ar
    35     5     6    1
