@<TRIPOS>MOLECULE
L3024_0_out.pdbqt
 33 35 0 0 0
SMALL
GASTEIGER

@<TRIPOS>ATOM
      1 C27        16.9050  -18.9810   -4.1240 C.ar    1  MOL1       -0.0240
      2 C28        17.1640  -17.6300   -3.8280 C.ar    1  MOL1       -0.0570
      3 C29        16.7550  -17.0820   -2.6070 C.ar    1  MOL1       -0.0610
      4 C30        16.0850  -17.8750   -1.6720 C.ar    1  MOL1       -0.0480
      5 C31        15.8240  -19.2210   -1.9520 C.ar    1  MOL1        0.0180
      6 Br32       14.9260  -20.3110   -0.6620 Br      1  MOL1       -0.0510
      7 C33        16.2270  -19.7710   -3.1730 C.ar    1  MOL1       -0.0430
      8  C6        17.2860  -19.5470   -5.4750 C.3     1  MOL1        0.0630
      9  C5        18.5810  -18.8850   -5.9770 C.3     1  MOL1        0.0510
     10  C1        20.1340  -21.5240   -8.3850 C.3     1  MOL1        0.0060
     11  N2        19.6470  -20.8570   -7.1860 N.am    1  MOL1       -0.3590
     12  C3        19.0850  -19.5420   -7.2300 C.2     1  MOL1        0.2220
     13  O4        19.0050  -18.9240   -8.3270 O.2     1  MOL1       -0.2750
     14  N7        16.1960  -19.3440   -6.4360 N.am    1  MOL1       -0.3460
     15  C8        15.3590  -20.4120   -6.8850 C.2     1  MOL1        0.2580
     16  O9        15.5450  -21.5850   -6.4660 O.2     1  MOL1       -0.2710
     17 C10        14.2420  -20.1450   -7.8490 C.3     1  MOL1        0.1670
     18 O11        14.2170  -18.7680   -8.2150 O.3     1  MOL1       -0.4800
     19 C12        13.2250  -17.8970   -7.7560 C.ar    1  MOL1        0.1660
     20 C13        11.8560  -18.1540   -8.0010 C.ar    1  MOL1        0.0120
     21 C21        10.8890  -17.2940   -7.4530 C.ar    1  MOL1       -0.0540
     22 C22        11.2740  -16.1720   -6.7190 C.ar    1  MOL1       -0.0580
     23 C23        12.6260  -15.8930   -6.5220 C.ar    1  MOL1       -0.0160
     24 C24        13.6120  -16.7510   -7.0430 C.ar    1  MOL1        0.1610
     25 C14        11.4040  -19.3300   -8.8370 C.3     1  MOL1        0.0280
     26 N15        10.0560  -19.0820   -9.3880 N.3     1  MOL1       -0.2870
     27 C16         9.1510  -20.2170   -9.1380 C.3     1  MOL1        0.0640
     28 C17         9.0380  -20.5470  -10.6130 C.3     1  MOL1        0.2720
     29 F18         7.7730  -20.3380  -11.1340 F       1  MOL1       -0.2040
     30 F19         9.5910  -21.7710  -10.9550 F       1  MOL1       -0.2040
     31 C20         9.9810  -19.3800  -10.8290 C.3     1  MOL1        0.0640
     32 O25        14.9820  -16.5050   -6.8680 O.3     1  MOL1       -0.4930
     33 C26        15.5220  -15.3080   -6.3170 C.3     1  MOL1        0.0780
@<TRIPOS>BOND
     1    29    28    1
     2    30    28    1
     3    31    28    1
     4    31    26    1
     5    28    27    1
     6    26    27    1
     7    26    25    1
     8    25    20    1
     9    10    11    1
    10    13    12    2
    11    18    17    1
    12    18    19    1
    13    20    19   ar
    14    20    21   ar
    15    17    15    1
    16    19    24   ar
    17    21    22   ar
    18    12    11   am
    19    12     9    1
    20    24    32    1
    21    24    23   ar
    22    15    16    2
    23    15    14   am
    24    32    33    1
    25    22    23   ar
    26    14     8    1
    27     9     8    1
    28     8     1    1
    29     1     2   ar
    30     1     7   ar
    31     2     3   ar
    32     7     5   ar
    33     3     4   ar
    34     5     4   ar
    35     5     6    1
