@<TRIPOS>MOLECULE
L3024_0_out.pdbqt
 33 35 0 0 0
SMALL
GASTEIGER

@<TRIPOS>ATOM
      1 C27        15.8720  -18.6680   -8.6220 C.ar    1  MOL1       -0.0240
      2 C28        16.5990  -17.6940   -9.3300 C.ar    1  MOL1       -0.0570
      3 C29        17.6730  -18.0660  -10.1450 C.ar    1  MOL1       -0.0610
      4 C30        18.0330  -19.4110  -10.2610 C.ar    1  MOL1       -0.0480
      5 C31        17.3160  -20.3910   -9.5650 C.ar    1  MOL1        0.0180
      6 Br32       17.7950  -22.2350   -9.7420 Br      1  MOL1       -0.0510
      7 C33        16.2450  -20.0220   -8.7450 C.ar    1  MOL1       -0.0430
      8  C6        14.7580  -18.2510   -7.6860 C.3     1  MOL1        0.0630
      9  C5        15.3210  -17.9990   -6.2760 C.3     1  MOL1        0.0510
     10  C1        13.6130  -14.5120   -5.9660 C.3     1  MOL1        0.0060
     11  N2        14.1670  -15.7410   -6.5150 N.am    1  MOL1       -0.3590
     12  C3        14.7680  -16.7370   -5.6800 C.2     1  MOL1        0.2220
     13  O4        14.8350  -16.5600   -4.4330 O.2     1  MOL1       -0.2750
     14  N7        13.7140  -19.2800   -7.6490 N.am    1  MOL1       -0.3460
     15  C8        12.3230  -18.9690   -7.7630 C.2     1  MOL1        0.2580
     16  O9        11.9480  -17.7740   -7.8920 O.2     1  MOL1       -0.2710
     17 C10        11.2980  -20.0630   -7.7450 C.3     1  MOL1        0.1670
     18 O11        11.0040  -20.4930   -9.0720 O.3     1  MOL1       -0.4800
     19 C12         9.9010  -21.3010   -9.3620 C.ar    1  MOL1        0.1660
     20 C13         8.6830  -20.7430   -9.8110 C.ar    1  MOL1        0.0120
     21 C21         7.6270  -21.5980  -10.1670 C.ar    1  MOL1       -0.0540
     22 C22         7.7590  -22.9800  -10.0340 C.ar    1  MOL1       -0.0580
     23 C23         8.9450  -23.5270   -9.5430 C.ar    1  MOL1       -0.0160
     24 C24        10.0240  -22.6910   -9.1990 C.ar    1  MOL1        0.1610
     25 C14         8.4830  -19.2470   -9.9180 C.3     1  MOL1        0.0280
     26 N15         8.0380  -18.6920   -8.6230 N.3     1  MOL1       -0.2870
     27 C16         6.6190  -18.3000   -8.6620 C.3     1  MOL1        0.0640
     28 C17         6.9450  -16.8290   -8.4970 C.3     1  MOL1        0.2720
     29 F18         6.5130  -16.2950   -7.2950 F       1  MOL1       -0.2040
     30 F19         6.6210  -16.0590   -9.6020 F       1  MOL1       -0.2040
     31 C20         8.3950  -17.2710   -8.4750 C.3     1  MOL1        0.0640
     32 O25        11.2320  -23.2000   -8.7010 O.3     1  MOL1       -0.4930
     33 C26        11.5040  -24.5840   -8.5060 C.3     1  MOL1        0.0780
@<TRIPOS>BOND
     1     4     3   ar
     2     4     5   ar
     3    21    22   ar
     4    21    20   ar
     5     3     2   ar
     6    22    23   ar
     7    25    20    1
     8    25    26    1
     9    20    19   ar
    10     6     5    1
    11    30    28    1
    12     5     7   ar
    13    23    24   ar
    14    19    24   ar
    15    19    18    1
    16     2     1   ar
    17    24    32    1
    18    18    17    1
    19     7     1   ar
    20    32    33    1
    21    27    26    1
    22    27    28    1
    23    26    31    1
    24     1     8    1
    25    28    31    1
    26    28    29    1
    27    16    15    2
    28    15    17    1
    29    15    14   am
    30     8    14    1
    31     8     9    1
    32    11    10    1
    33    11    12   am
    34     9    12    1
    35    12    13    2
