@<TRIPOS>MOLECULE
L3024_0_out.pdbqt
 33 35 0 0 0
SMALL
GASTEIGER

@<TRIPOS>ATOM
      1 C27        12.7440  -19.6510   -7.5310 C.ar    1  MOL1       -0.0240
      2 C28        12.0250  -20.5650   -6.7390 C.ar    1  MOL1       -0.0570
      3 C29        12.5190  -21.8560   -6.5230 C.ar    1  MOL1       -0.0610
      4 C30        13.7330  -22.2470   -7.0960 C.ar    1  MOL1       -0.0480
      5 C31        14.4590  -21.3470   -7.8830 C.ar    1  MOL1        0.0180
      6 Br32       16.1310  -21.8770   -8.6490 Br      1  MOL1       -0.0510
      7 C33        13.9660  -20.0570   -8.1060 C.ar    1  MOL1       -0.0430
      8  C6        12.1680  -18.2820   -7.8190 C.3     1  MOL1        0.0630
      9  C5        11.2330  -18.3490   -9.0400 C.3     1  MOL1        0.0510
     10  C1         7.8040  -16.6560   -8.2990 C.3     1  MOL1        0.0060
     11  N2         9.1970  -16.8650   -8.6670 N.am    1  MOL1       -0.3590
     12  C3         9.7960  -18.1650   -8.6450 C.2     1  MOL1        0.2220
     13  O4         9.1170  -19.1690   -8.2940 O.2     1  MOL1       -0.2750
     14  N7        13.2460  -17.3140   -8.0480 N.am    1  MOL1       -0.3460
     15  C8        13.3920  -16.1260   -7.2670 C.2     1  MOL1        0.2580
     16  O9        12.5730  -15.8670   -6.3460 O.2     1  MOL1       -0.2710
     17 C10        14.5290  -15.1840   -7.5250 C.3     1  MOL1        0.1670
     18 O11        15.2850  -14.9740   -6.3340 O.3     1  MOL1       -0.4800
     19 C12        16.0800  -15.9780   -5.7750 C.ar    1  MOL1        0.1660
     20 C13        15.8420  -16.4550   -4.4660 C.ar    1  MOL1        0.0120
     21 C21        16.6160  -17.5190   -3.9730 C.ar    1  MOL1       -0.0540
     22 C22        17.6390  -18.0680   -4.7460 C.ar    1  MOL1       -0.0580
     23 C23        17.9050  -17.5620   -6.0190 C.ar    1  MOL1       -0.0160
     24 C24        17.1300  -16.5100   -6.5420 C.ar    1  MOL1        0.1610
     25 C14        14.7770  -15.8500   -3.5790 C.3     1  MOL1        0.0280
     26 N15        15.2450  -14.5670   -3.0130 N.3     1  MOL1       -0.2870
     27 C16        15.8980  -14.7570   -1.7070 C.3     1  MOL1        0.0640
     28 C17        14.8120  -13.9970   -0.9710 C.3     1  MOL1        0.2720
     29 F18        15.2460  -12.8030   -0.4200 F       1  MOL1       -0.2040
     30 F19        14.0730  -14.7810   -0.1010 F       1  MOL1       -0.2040
     31 C20        14.1640  -13.8330   -2.3320 C.3     1  MOL1        0.0640
     32 O25        17.3660  -15.9720   -7.8150 O.3     1  MOL1       -0.4930
     33 C26        17.2430  -16.7000   -9.0320 C.3     1  MOL1        0.0780
@<TRIPOS>BOND
     1     9    12    1
     2     9     8    1
     3    33    32    1
     4    11    12   am
     5    11    10    1
     6     6     5    1
     7    12    13    2
     8     7     5   ar
     9     7     1   ar
    10    14     8    1
    11    14    15   am
    12     5     4   ar
    13     8     1    1
    14    32    24    1
    15     1     2   ar
    16    17    15    1
    17    17    18    1
    18    15    16    2
    19     4     3   ar
    20     2     3   ar
    21    24    23   ar
    22    24    19   ar
    23    18    19    1
    24    23    22   ar
    25    19    20   ar
    26    22    21   ar
    27    20    21   ar
    28    20    25    1
    29    25    26    1
    30    26    31    1
    31    26    27    1
    32    31    28    1
    33    27    28    1
    34    28    29    1
    35    28    30    1
