@<TRIPOS>MOLECULE
L3024_0_out.pdbqt
 33 35 0 0 0
SMALL
GASTEIGER

@<TRIPOS>ATOM
      1 C27         7.4250  -17.9250  -10.3990 C.ar    1  MOL1       -0.0240
      2 C28         7.7660  -18.4400  -11.6620 C.ar    1  MOL1       -0.0570
      3 C29         7.4040  -17.7560  -12.8280 C.ar    1  MOL1       -0.0610
      4 C30         6.6980  -16.5520  -12.7430 C.ar    1  MOL1       -0.0480
      5 C31         6.3550  -16.0270  -11.4920 C.ar    1  MOL1        0.0180
      6 Br32        5.4080  -14.3680  -11.3770 Br      1  MOL1       -0.0510
      7 C33         6.7110  -16.7110  -10.3260 C.ar    1  MOL1       -0.0430
      8  C6         7.7570  -18.7070   -9.1470 C.3     1  MOL1        0.0630
      9  C5         6.6020  -18.5980   -8.1350 C.3     1  MOL1        0.0510
     10  C1         3.6430  -21.0570   -7.5240 C.3     1  MOL1        0.0060
     11  N2         4.4540  -19.8490   -7.5780 N.am    1  MOL1       -0.3590
     12  C3         5.7940  -19.8620   -8.0820 C.2     1  MOL1        0.2220
     13  O4         6.3060  -20.9410   -8.4900 O.2     1  MOL1       -0.2750
     14  N7         9.0070  -18.2170   -8.5580 N.am    1  MOL1       -0.3460
     15  C8        10.2790  -18.7900   -8.8660 C.2     1  MOL1        0.2580
     16  O9        10.3620  -19.7620   -9.6640 O.2     1  MOL1       -0.2710
     17 C10        11.5300  -18.2340   -8.2560 C.3     1  MOL1        0.1670
     18 O11        12.5860  -19.1890   -8.3220 O.3     1  MOL1       -0.4800
     19 C12        13.2690  -19.6200   -7.1820 C.ar    1  MOL1        0.1660
     20 C13        14.3900  -18.9130   -6.6900 C.ar    1  MOL1        0.0120
     21 C21        14.9980  -19.3370   -5.4960 C.ar    1  MOL1       -0.0540
     22 C22        14.5320  -20.4690   -4.8280 C.ar    1  MOL1       -0.0580
     23 C23        13.4570  -21.1950   -5.3420 C.ar    1  MOL1       -0.0160
     24 C24        12.8200  -20.7780   -6.5260 C.ar    1  MOL1        0.1610
     25 C14        14.9560  -17.7130   -7.4160 C.3     1  MOL1        0.0280
     26 N15        15.9840  -17.0480   -6.5890 N.3     1  MOL1       -0.2870
     27 C16        15.6710  -15.6250   -6.3770 C.3     1  MOL1        0.0640
     28 C17        16.8750  -15.1650   -7.1750 C.3     1  MOL1        0.2720
     29 F18        17.8350  -14.5220   -6.4120 F       1  MOL1       -0.2040
     30 F19        16.5480  -14.4980   -8.3440 F       1  MOL1       -0.2040
     31 C20        17.1570  -16.6400   -7.3820 C.3     1  MOL1        0.0640
     32 O25        11.7380  -21.4800   -7.0760 O.3     1  MOL1       -0.4930
     33 C26        11.8580  -22.5120   -8.0490 C.3     1  MOL1        0.0780
@<TRIPOS>BOND
     1     3     4   ar
     2     3     2   ar
     3     4     5   ar
     4     2     1   ar
     5     5     6    1
     6     5     7   ar
     7     1     7   ar
     8     1     8    1
     9    16    15    2
    10     8    14    1
    11     8     9    1
    12    15    14   am
    13    15    17    1
    14    13    12    2
    15    30    28    1
    16    18    17    1
    17    18    19    1
    18     9    12    1
    19    12    11   am
    20    33    32    1
    21    11    10    1
    22    25    20    1
    23    25    26    1
    24    31    28    1
    25    31    26    1
    26    19    20   ar
    27    19    24   ar
    28    28    29    1
    29    28    27    1
    30    32    24    1
    31    20    21   ar
    32    26    27    1
    33    24    23   ar
    34    21    22   ar
    35    23    22   ar
