@<TRIPOS>MOLECULE
L3024_0_out.pdbqt
 33 35 0 0 0
SMALL
GASTEIGER

@<TRIPOS>ATOM
      1 C27        16.5770  -19.4200   -8.5000 C.ar    1  MOL1       -0.0240
      2 C28        17.8330  -19.5020   -7.8720 C.ar    1  MOL1       -0.0570
      3 C29        18.9970  -19.1660   -8.5730 C.ar    1  MOL1       -0.0610
      4 C30        18.9180  -18.7450   -9.9030 C.ar    1  MOL1       -0.0480
      5 C31        17.6740  -18.6560  -10.5380 C.ar    1  MOL1        0.0180
      6 Br32       17.5650  -18.0590  -12.3520 Br      1  MOL1       -0.0510
      7 C33        16.5090  -18.9970   -9.8420 C.ar    1  MOL1       -0.0430
      8  C6        15.3310  -19.8550   -7.7590 C.3     1  MOL1        0.0630
      9  C5        14.0880  -19.2020   -8.3890 C.3     1  MOL1        0.0510
     10  C1        10.4880  -19.7060   -6.9880 C.3     1  MOL1        0.0060
     11  N2        11.7300  -19.0900   -7.4310 N.am    1  MOL1       -0.3590
     12  C3        12.8230  -19.8690   -7.9300 C.2     1  MOL1        0.2220
     13  O4        12.7280  -21.1250   -7.9910 O.2     1  MOL1       -0.2750
     14  N7        15.4350  -19.5040   -6.3380 N.am    1  MOL1       -0.3460
     15  C8        15.3610  -20.4800   -5.2970 C.2     1  MOL1        0.2580
     16  O9        15.1900  -21.6960   -5.5770 O.2     1  MOL1       -0.2710
     17 C10        15.5010  -20.0690   -3.8620 C.3     1  MOL1        0.1670
     18 O11        15.0140  -18.7430   -3.6730 O.3     1  MOL1       -0.4800
     19 C12        15.6520  -17.8330   -2.8260 C.ar    1  MOL1        0.1660
     20 C13        16.5750  -16.8880   -3.3300 C.ar    1  MOL1        0.0120
     21 C21        17.1320  -15.9400   -2.4550 C.ar    1  MOL1       -0.0540
     22 C22        16.8180  -15.9600   -1.0960 C.ar    1  MOL1       -0.0580
     23 C23        15.9460  -16.9250   -0.5920 C.ar    1  MOL1       -0.0160
     24 C24        15.3590  -17.8720   -1.4530 C.ar    1  MOL1        0.1610
     25 C14        16.9810  -16.8690   -4.7870 C.3     1  MOL1        0.0280
     26 N15        16.5150  -15.6270   -5.4360 N.3     1  MOL1       -0.2870
     27 C16        15.7560  -15.9110   -6.6660 C.3     1  MOL1        0.0640
     28 C17        16.8060  -15.2670   -7.5500 C.3     1  MOL1        0.2720
     29 F18        16.3720  -14.1140   -8.1790 F       1  MOL1       -0.2040
     30 F19        17.4470  -16.1600   -8.3940 F       1  MOL1       -0.2040
     31 C20        17.5640  -15.0050   -6.2630 C.3     1  MOL1        0.0640
     32 O25        14.4780  -18.8580   -0.9860 O.3     1  MOL1       -0.4930
     33 C26        14.8590  -19.9510   -0.1560 C.3     1  MOL1        0.0780
@<TRIPOS>BOND
     1     6     5    1
     2     5     4   ar
     3     5     7   ar
     4     4     3   ar
     5     7     1   ar
     6     3     2   ar
     7     1     2   ar
     8     1     8    1
     9    30    28    1
    10     9    12    1
    11     9     8    1
    12    29    28    1
    13    13    12    2
    14    12    11   am
    15     8    14    1
    16    28    27    1
    17    28    31    1
    18    11    10    1
    19    27    26    1
    20    14    15   am
    21    31    26    1
    22    16    15    2
    23    26    25    1
    24    15    17    1
    25    25    20    1
    26    17    18    1
    27    18    19    1
    28    20    19   ar
    29    20    21   ar
    30    19    24   ar
    31    21    22   ar
    32    24    32    1
    33    24    23   ar
    34    22    23   ar
    35    32    33    1
