@<TRIPOS>MOLECULE
L3024_0_out.pdbqt
 33 35 0 0 0
SMALL
GASTEIGER

@<TRIPOS>ATOM
      1 C27         6.5680  -21.6020   -9.1390 C.ar    1  MOL1       -0.0240
      2 C28         6.4990  -20.8470   -7.9540 C.ar    1  MOL1       -0.0570
      3 C29         5.2580  -20.5210   -7.3950 C.ar    1  MOL1       -0.0610
      4 C30         4.0780  -20.9440   -8.0120 C.ar    1  MOL1       -0.0480
      5 C31         4.1330  -21.6980   -9.1890 C.ar    1  MOL1        0.0180
      6 Br32        2.5170  -22.2960  -10.0210 Br      1  MOL1       -0.0510
      7 C33         5.3710  -22.0220   -9.7530 C.ar    1  MOL1       -0.0430
      8  C6         7.9110  -21.8890   -9.7760 C.3     1  MOL1        0.0630
      9  C5         8.0690  -23.4010  -10.0140 C.3     1  MOL1        0.0510
     10  C1        11.6540  -24.7950   -9.3980 C.3     1  MOL1        0.0060
     11  N2        10.2630  -24.4110   -9.2050 N.am    1  MOL1       -0.3590
     12  C3         9.5060  -23.7750  -10.2400 C.2     1  MOL1        0.2220
     13  O4        10.0420  -23.5270  -11.3550 O.2     1  MOL1       -0.2750
     14  N7         8.9950  -21.3830   -8.9270 N.am    1  MOL1       -0.3460
     15  C8        10.0210  -20.5210   -9.4220 C.2     1  MOL1        0.2580
     16  O9        10.0280  -20.1710  -10.6320 O.2     1  MOL1       -0.2710
     17 C10        11.0920  -20.0110   -8.5040 C.3     1  MOL1        0.1670
     18 O11        11.6260  -18.7830   -8.9930 O.3     1  MOL1       -0.4800
     19 C12        11.8540  -17.6880   -8.1560 C.ar    1  MOL1        0.1660
     20 C13        10.7920  -17.0620   -7.4650 C.ar    1  MOL1        0.0120
     21 C21        11.0770  -16.0150   -6.5730 C.ar    1  MOL1       -0.0540
     22 C22        12.3870  -15.5650   -6.4040 C.ar    1  MOL1       -0.0580
     23 C23        13.4280  -16.1520   -7.1240 C.ar    1  MOL1       -0.0160
     24 C24        13.1690  -17.2150   -8.0090 C.ar    1  MOL1        0.1610
     25 C14         9.3530  -17.4860   -7.6630 C.3     1  MOL1        0.0280
     26 N15         8.6450  -16.5220   -8.5290 N.3     1  MOL1       -0.2870
     27 C16         7.1840  -16.6400   -8.3900 C.3     1  MOL1        0.0640
     28 C17         7.0140  -17.1280   -9.8150 C.3     1  MOL1        0.2720
     29 F18         6.3330  -16.2400  -10.6290 F       1  MOL1       -0.2040
     30 F19         6.5610  -18.4340   -9.9070 F       1  MOL1       -0.2040
     31 C20         8.5220  -17.0050   -9.9150 C.3     1  MOL1        0.0640
     32 O25        14.1860  -17.8320   -8.7520 O.3     1  MOL1       -0.4930
     33 C26        15.1080  -18.7790   -8.2240 C.3     1  MOL1        0.0780
@<TRIPOS>BOND
     1    13    12    2
     2    16    15    2
     3    29    28    1
     4    12     9    1
     5    12    11   am
     6     6     5    1
     7     9     8    1
     8    31    28    1
     9    31    26    1
    10    30    28    1
    11    28    27    1
    12     8     1    1
    13     8    14    1
    14     7     5   ar
    15     7     1   ar
    16    15    14   am
    17    15    17    1
    18    10    11    1
    19     5     4   ar
    20     1     2   ar
    21    18    17    1
    22    18    19    1
    23    32    33    1
    24    32    24    1
    25    26    27    1
    26    26    25    1
    27    19    24   ar
    28    19    20   ar
    29     4     3   ar
    30    24    23   ar
    31     2     3   ar
    32    25    20    1
    33    20    21   ar
    34    23    22   ar
    35    21    22   ar
