@<TRIPOS>MOLECULE
L3024_0_out.pdbqt
 33 35 0 0 0
SMALL
GASTEIGER

@<TRIPOS>ATOM
      1 C27         7.0580  -19.7020   -8.4680 C.ar    1  MOL1       -0.0240
      2 C28         6.1230  -20.7330   -8.2670 C.ar    1  MOL1       -0.0570
      3 C29         4.8470  -20.4440   -7.7720 C.ar    1  MOL1       -0.0610
      4 C30         4.4920  -19.1260   -7.4740 C.ar    1  MOL1       -0.0480
      5 C31         5.4110  -18.0900   -7.6730 C.ar    1  MOL1        0.0180
      6 Br32        4.9170  -16.2830   -7.2850 Br      1  MOL1       -0.0510
      7 C33         6.6900  -18.3760   -8.1620 C.ar    1  MOL1       -0.0430
      8  C6         8.4600  -20.0310   -8.9340 C.3     1  MOL1        0.0630
      9  C5         8.7280  -21.5380   -8.7750 C.3     1  MOL1        0.0510
     10  C1        10.4470  -24.0620  -11.1940 C.3     1  MOL1        0.0060
     11  N2         9.8330  -23.4700  -10.0140 N.am    1  MOL1       -0.3590
     12  C3         9.3670  -22.1160  -10.0050 C.2     1  MOL1        0.2220
     13  O4         9.4870  -21.3990  -11.0350 O.2     1  MOL1       -0.2750
     14  N7         9.4440  -19.2490   -8.1770 N.am    1  MOL1       -0.3460
     15  C8        10.4700  -18.4820   -8.8120 C.2     1  MOL1        0.2580
     16  O9        10.5650  -18.4660  -10.0680 O.2     1  MOL1       -0.2710
     17 C10        11.4340  -17.6800   -7.9910 C.3     1  MOL1        0.1670
     18 O11        12.7740  -18.0880   -8.2550 O.3     1  MOL1       -0.4800
     19 C12        13.7710  -18.0380   -7.2770 C.ar    1  MOL1        0.1660
     20 C13        14.0470  -19.1560   -6.4560 C.ar    1  MOL1        0.0120
     21 C21        15.1090  -19.0880   -5.5400 C.ar    1  MOL1       -0.0540
     22 C22        15.8540  -17.9170   -5.4050 C.ar    1  MOL1       -0.0580
     23 C23        15.5480  -16.7980   -6.1800 C.ar    1  MOL1       -0.0160
     24 C24        14.5010  -16.8490   -7.1190 C.ar    1  MOL1        0.1610
     25 C14        13.2270  -20.4250   -6.5370 C.3     1  MOL1        0.0280
     26 N15        13.4560  -21.1060   -7.8280 N.3     1  MOL1       -0.2870
     27 C16        12.5360  -22.2410   -8.0120 C.3     1  MOL1        0.0640
     28 C17        13.6620  -23.2550   -7.9620 C.3     1  MOL1        0.2720
     29 F18        13.8700  -23.9140   -9.1620 F       1  MOL1       -0.2040
     30 F19        13.6060  -24.0970   -6.8630 F       1  MOL1       -0.2040
     31 C20        14.5750  -22.0620   -7.7610 C.3     1  MOL1        0.0640
     32 O25        14.1600  -15.7460   -7.9160 O.3     1  MOL1       -0.4930
     33 C26        14.9490  -14.5680   -8.0400 C.3     1  MOL1        0.0780
@<TRIPOS>BOND
     1    10    11    1
     2    13    12    2
     3    16    15    2
     4    11    12   am
     5    12     9    1
     6    29    28    1
     7     8     9    1
     8     8     1    1
     9     8    14    1
    10    15    14   am
    11    15    17    1
    12     1     2   ar
    13     1     7   ar
    14     2     3   ar
    15    18    17    1
    16    18    19    1
    17     7     5   ar
    18    33    32    1
    19    27    28    1
    20    27    26    1
    21    28    31    1
    22    28    30    1
    23    32    24    1
    24    26    31    1
    25    26    25    1
    26     3     4   ar
    27     5     4   ar
    28     5     6    1
    29    19    24   ar
    30    19    20   ar
    31    24    23   ar
    32    25    20    1
    33    20    21   ar
    34    23    22   ar
    35    21    22   ar
