@<TRIPOS>MOLECULE
L3024_0_out.pdbqt
 33 35 0 0 0
SMALL
GASTEIGER

@<TRIPOS>ATOM
      1 C27         8.0310  -17.5370   -9.3090 C.ar    1  MOL1       -0.0240
      2 C28         7.8120  -16.8990  -10.5440 C.ar    1  MOL1       -0.0570
      3 C29         6.6870  -16.0880  -10.7310 C.ar    1  MOL1       -0.0610
      4 C30         5.7720  -15.9070   -9.6900 C.ar    1  MOL1       -0.0480
      5 C31         5.9800  -16.5330   -8.4560 C.ar    1  MOL1        0.0180
      6 Br32        4.7390  -16.2670   -7.0250 Br      1  MOL1       -0.0510
      7 C33         7.1010  -17.3490   -8.2670 C.ar    1  MOL1       -0.0430
      8  C6         9.2110  -18.4700   -9.1380 C.3     1  MOL1        0.0630
      9  C5         8.7170  -19.8870   -8.7950 C.3     1  MOL1        0.0510
     10  C1         9.6230  -23.3050  -10.4280 C.3     1  MOL1        0.0060
     11  N2         9.1550  -22.2980   -9.4860 N.am    1  MOL1       -0.3590
     12  C3         9.2180  -20.8990   -9.7830 C.2     1  MOL1        0.2220
     13  O4         9.6940  -20.5070  -10.8830 O.2     1  MOL1       -0.2750
     14  N7        10.1080  -17.9680   -8.0920 N.am    1  MOL1       -0.3460
     15  C8        11.5170  -17.8330   -8.2880 C.2     1  MOL1        0.2580
     16  O9        12.0400  -18.1590   -9.3870 O.2     1  MOL1       -0.2710
     17 C10        12.3860  -17.2900   -7.1930 C.3     1  MOL1        0.1670
     18 O11        13.7630  -17.4030   -7.5460 O.3     1  MOL1       -0.4800
     19 C12        14.7860  -17.1960   -6.6170 C.ar    1  MOL1        0.1660
     20 C13        15.4750  -18.2840   -6.0350 C.ar    1  MOL1        0.0120
     21 C21        16.5490  -18.0290   -5.1660 C.ar    1  MOL1       -0.0540
     22 C22        16.9020  -16.7190   -4.8420 C.ar    1  MOL1       -0.0580
     23 C23        16.1880  -15.6480   -5.3790 C.ar    1  MOL1       -0.0160
     24 C24        15.1210  -15.8780   -6.2670 C.ar    1  MOL1        0.1610
     25 C14        15.0870  -19.7180   -6.3200 C.3     1  MOL1        0.0280
     26 N15        15.9690  -20.2960   -7.3540 N.3     1  MOL1       -0.2870
     27 C16        15.2520  -20.5060   -8.6230 C.3     1  MOL1        0.0640
     28 C17        15.3770  -22.0140   -8.5290 C.3     1  MOL1        0.2720
     29 F18        16.1860  -22.5670   -9.5060 F       1  MOL1       -0.2040
     30 F19        14.1650  -22.6650   -8.3690 F       1  MOL1       -0.2040
     31 C20        16.1000  -21.7570   -7.2200 C.3     1  MOL1        0.0640
     32 O25        14.3780  -14.8290   -6.8280 O.3     1  MOL1       -0.4930
     33 C26        14.7620  -14.1010   -7.9900 C.3     1  MOL1        0.0780
@<TRIPOS>BOND
     1    13    12    2
     2     3     2   ar
     3     3     4   ar
     4     2     1   ar
     5    10    11    1
     6    12    11   am
     7    12     9    1
     8     4     5   ar
     9    29    28    1
    10    16    15    2
    11     1     8    1
    12     1     7   ar
    13     8     9    1
    14     8    14    1
    15    27    28    1
    16    27    26    1
    17    28    30    1
    18    28    31    1
    19     5     7   ar
    20     5     6    1
    21    15    14   am
    22    15    17    1
    23    33    32    1
    24    18    17    1
    25    18    19    1
    26    26    31    1
    27    26    25    1
    28    32    24    1
    29    19    24   ar
    30    19    20   ar
    31    25    20    1
    32    24    23   ar
    33    20    21   ar
    34    23    22   ar
    35    21    22   ar
