@<TRIPOS>MOLECULE
L3024_0_out.pdbqt
 33 35 0 0 0
SMALL
GASTEIGER

@<TRIPOS>ATOM
      1 C27         6.9170  -17.1700  -10.1040 C.ar    1  MOL1       -0.0240
      2 C28         7.3360  -17.9500  -11.1970 C.ar    1  MOL1       -0.0570
      3 C29         7.0850  -17.5250  -12.5070 C.ar    1  MOL1       -0.0610
      4 C30         6.4140  -16.3210  -12.7370 C.ar    1  MOL1       -0.0480
      5 C31         5.9950  -15.5350  -11.6590 C.ar    1  MOL1        0.0180
      6 Br32        5.0960  -13.8760  -11.9760 Br      1  MOL1       -0.0510
      7 C33         6.2390  -15.9580  -10.3480 C.ar    1  MOL1       -0.0430
      8  C6         7.1280  -17.6710   -8.6920 C.3     1  MOL1        0.0630
      9  C5         6.6700  -16.6040   -7.6800 C.3     1  MOL1        0.0510
     10  C1         2.9470  -15.6860   -6.9950 C.3     1  MOL1        0.0060
     11  N2         4.3680  -15.5850   -7.2950 N.am    1  MOL1       -0.3590
     12  C3         5.2100  -16.7410   -7.3580 C.2     1  MOL1        0.2220
     13  O4         4.7280  -17.8870   -7.1460 O.2     1  MOL1       -0.2750
     14  N7         8.5380  -18.0130   -8.4790 N.am    1  MOL1       -0.3460
     15  C8         9.5390  -17.0260   -8.2240 C.2     1  MOL1        0.2580
     16  O9         9.2320  -15.8050   -8.1850 O.2     1  MOL1       -0.2710
     17 C10        10.9630  -17.4320   -7.9880 C.3     1  MOL1        0.1670
     18 O11        11.0190  -18.6070   -7.1820 O.3     1  MOL1       -0.4800
     19 C12        12.0130  -19.5740   -7.3500 C.ar    1  MOL1        0.1660
     20 C13        11.7010  -20.8690   -7.8260 C.ar    1  MOL1        0.0120
     21 C21        12.7430  -21.7840   -8.0540 C.ar    1  MOL1       -0.0540
     22 C22        14.0640  -21.4390   -7.7700 C.ar    1  MOL1       -0.0580
     23 C23        14.3640  -20.1780   -7.2530 C.ar    1  MOL1       -0.0160
     24 C24        13.3400  -19.2380   -7.0350 C.ar    1  MOL1        0.1610
     25 C14        10.2760  -21.2970   -8.0940 C.3     1  MOL1        0.0280
     26 N15        10.0540  -21.4700   -9.5440 N.3     1  MOL1       -0.2870
     27 C16         8.6990  -21.0490   -9.9390 C.3     1  MOL1        0.0640
     28 C17         8.2910  -22.4590  -10.3170 C.3     1  MOL1        0.2720
     29 F18         8.0600  -22.6260  -11.6720 F       1  MOL1       -0.2040
     30 F19         7.2980  -22.9880   -9.5090 F       1  MOL1       -0.2040
     31 C20         9.6900  -22.8550   -9.8890 C.3     1  MOL1        0.0640
     32 O25        13.5990  -17.9610   -6.5160 O.3     1  MOL1       -0.4930
     33 C26        14.7390  -17.1740   -6.8440 C.3     1  MOL1        0.0780
@<TRIPOS>BOND
     1     4     3   ar
     2     4     5   ar
     3     3     2   ar
     4     6     5    1
     5    29    28    1
     6     5     7   ar
     7     2     1   ar
     8     7     1   ar
     9    28    27    1
    10    28    31    1
    11    28    30    1
    12     1     8    1
    13    27    26    1
    14    31    26    1
    15    26    25    1
    16     8    14    1
    17     8     9    1
    18    14    15   am
    19    15    16    2
    20    15    17    1
    21    25    20    1
    22    21    20   ar
    23    21    22   ar
    24    17    18    1
    25    20    19   ar
    26    22    23   ar
    27     9    12    1
    28    12    11   am
    29    12    13    2
    30    19    18    1
    31    19    24   ar
    32    11    10    1
    33    23    24   ar
    34    24    32    1
    35    33    32    1
