@<TRIPOS>MOLECULE
L3024_0_out.pdbqt
 33 35 0 0 0
SMALL
GASTEIGER

@<TRIPOS>ATOM
      1 C27         7.5000  -17.6000  -10.5320 C.ar    1  MOL1       -0.0240
      2 C28         7.8710  -18.2180  -11.7400 C.ar    1  MOL1       -0.0570
      3 C29         7.4420  -17.6910  -12.9640 C.ar    1  MOL1       -0.0610
      4 C30         6.6410  -16.5460  -12.9930 C.ar    1  MOL1       -0.0480
      5 C31         6.2690  -15.9210  -11.7980 C.ar    1  MOL1        0.0180
      6 Br32        5.1910  -14.3410  -11.8400 Br      1  MOL1       -0.0510
      7 C33         6.6910  -16.4470  -10.5730 C.ar    1  MOL1       -0.0430
      8  C6         7.9070  -18.2170   -9.2110 C.3     1  MOL1        0.0630
      9  C5         6.7500  -18.1120   -8.2010 C.3     1  MOL1        0.0510
     10  C1         5.2900  -21.5670   -9.2490 C.3     1  MOL1        0.0060
     11  N2         6.1370  -20.3860   -9.1700 N.am    1  MOL1       -0.3590
     12  C3         5.8510  -19.3120   -8.2670 C.2     1  MOL1        0.2220
     13  O4         4.8400  -19.3700   -7.5150 O.2     1  MOL1       -0.2750
     14  N7         9.1090  -17.5560   -8.6900 N.am    1  MOL1       -0.3460
     15  C8        10.1140  -18.2560   -7.9540 C.2     1  MOL1        0.2580
     16  O9         9.9870  -19.4870   -7.7190 O.2     1  MOL1       -0.2710
     17 C10        11.3360  -17.5380   -7.4670 C.3     1  MOL1        0.1670
     18 O11        12.5150  -18.1540   -7.9800 O.3     1  MOL1       -0.4800
     19 C12        13.6670  -18.3110   -7.2040 C.ar    1  MOL1        0.1660
     20 C13        13.9390  -19.5280   -6.5380 C.ar    1  MOL1        0.0120
     21 C21        15.1470  -19.6690   -5.8340 C.ar    1  MOL1       -0.0540
     22 C22        16.0460  -18.6060   -5.7510 C.ar    1  MOL1       -0.0580
     23 C23        15.7520  -17.3890   -6.3670 C.ar    1  MOL1       -0.0160
     24 C24        14.5580  -17.2310   -7.0940 C.ar    1  MOL1        0.1610
     25 C14        12.9640  -20.6840   -6.5610 C.3     1  MOL1        0.0280
     26 N15        13.0690  -21.4220   -7.8360 N.3     1  MOL1       -0.2870
     27 C16        11.9780  -22.4010   -7.9870 C.3     1  MOL1        0.0640
     28 C17        12.9290  -23.5800   -7.9200 C.3     1  MOL1        0.2720
     29 F18        13.0180  -24.2900   -9.1040 F       1  MOL1       -0.2040
     30 F19        12.7510  -24.3760   -6.8000 F       1  MOL1       -0.2040
     31 C20        14.0220  -22.5420   -7.7540 C.3     1  MOL1        0.0640
     32 O25        14.2240  -16.0240   -7.7270 O.3     1  MOL1       -0.4930
     33 C26        14.0400  -14.7850   -7.0510 C.3     1  MOL1        0.0780
@<TRIPOS>BOND
     1     4     3   ar
     2     4     5   ar
     3     3     2   ar
     4     6     5    1
     5     5     7   ar
     6     2     1   ar
     7     7     1   ar
     8     1     8    1
     9    10    11    1
    10     8    14    1
    11     8     9    1
    12    11    12   am
    13    29    28    1
    14    14    15   am
    15    12     9    1
    16    12    13    2
    17    27    28    1
    18    27    26    1
    19    18    17    1
    20    18    19    1
    21    15    16    2
    22    15    17    1
    23    28    31    1
    24    28    30    1
    25    26    31    1
    26    26    25    1
    27    32    24    1
    28    32    33    1
    29    19    24   ar
    30    19    20   ar
    31    24    23   ar
    32    25    20    1
    33    20    21   ar
    34    23    22   ar
    35    21    22   ar
