@<TRIPOS>MOLECULE
L3024_0_out.pdbqt
 33 35 0 0 0
SMALL
GASTEIGER

@<TRIPOS>ATOM
      1 C27        10.3200  -18.8150   -9.1240 C.ar    1  MOL1       -0.0240
      2 C28        10.3420  -18.9140  -10.5270 C.ar    1  MOL1       -0.0570
      3 C29         9.2020  -18.6050  -11.2760 C.ar    1  MOL1       -0.0610
      4 C30         8.0310  -18.1950  -10.6350 C.ar    1  MOL1       -0.0480
      5 C31         7.9960  -18.0880   -9.2400 C.ar    1  MOL1        0.0180
      6 Br32        6.3980  -17.5060   -8.3630 Br      1  MOL1       -0.0510
      7 C33         9.1320  -18.4020   -8.4860 C.ar    1  MOL1       -0.0430
      8  C6        11.5340  -19.2200   -8.3160 C.3     1  MOL1        0.0630
      9  C5        11.2860  -20.5800   -7.6380 C.3     1  MOL1        0.0510
     10  C1        14.8200  -22.1850   -7.3120 C.3     1  MOL1        0.0060
     11  N2        13.5840  -21.6530   -7.8680 N.am    1  MOL1       -0.3590
     12  C3        12.5440  -21.1310   -7.0330 C.2     1  MOL1        0.2220
     13  O4        12.6820  -21.1280   -5.7790 O.2     1  MOL1       -0.2750
     14  N7        11.8450  -18.1930   -7.3160 N.am    1  MOL1       -0.3460
     15  C8        12.6790  -17.0680   -7.6020 C.2     1  MOL1        0.2580
     16  O9        13.1890  -16.9310   -8.7460 O.2     1  MOL1       -0.2710
     17 C10        12.9430  -16.0340   -6.5500 C.3     1  MOL1        0.1670
     18 O11        14.3320  -15.9910   -6.2310 O.3     1  MOL1       -0.4800
     19 C12        14.8670  -16.6990   -5.1510 C.ar    1  MOL1        0.1660
     20 C13        15.4990  -17.9490   -5.3380 C.ar    1  MOL1        0.0120
     21 C21        16.0930  -18.5880   -4.2370 C.ar    1  MOL1       -0.0540
     22 C22        16.0180  -18.0220   -2.9650 C.ar    1  MOL1       -0.0580
     23 C23        15.3500  -16.8120   -2.7740 C.ar    1  MOL1       -0.0160
     24 C24        14.7650  -16.1430   -3.8650 C.ar    1  MOL1        0.1610
     25 C14        15.5540  -18.6200   -6.6930 C.3     1  MOL1        0.0280
     26 N15        16.9550  -18.8760   -7.0860 N.3     1  MOL1       -0.2870
     27 C16        17.6360  -17.6390   -7.5020 C.3     1  MOL1        0.0640
     28 C17        17.7780  -18.1130   -8.9350 C.3     1  MOL1        0.2720
     29 F18        19.0890  -18.3360   -9.3190 F       1  MOL1       -0.2040
     30 F19        17.0470  -17.3660   -9.8440 F       1  MOL1       -0.2040
     31 C20        17.0630  -19.3660   -8.4710 C.3     1  MOL1        0.0640
     32 O25        14.0840  -14.9270   -3.7160 O.3     1  MOL1       -0.4930
     33 C26        14.6410  -13.7590   -3.1230 C.3     1  MOL1        0.0780
@<TRIPOS>BOND
     1     3     4   ar
     2     3     2   ar
     3     4     5   ar
     4     2     1   ar
     5    30    28    1
     6    29    28    1
     7     5     7   ar
     8     5     6    1
     9     1     7   ar
    10     1     8    1
    11    28    31    1
    12    28    27    1
    13    16    15    2
    14    31    26    1
    15     8     9    1
    16     8    14    1
    17    11    10    1
    18    11    12   am
    19     9    12    1
    20    15    14   am
    21    15    17    1
    22    27    26    1
    23    26    25    1
    24    12    13    2
    25    25    20    1
    26    17    18    1
    27    18    19    1
    28    20    19   ar
    29    20    21   ar
    30    19    24   ar
    31    21    22   ar
    32    24    32    1
    33    24    23   ar
    34    32    33    1
    35    22    23   ar
