@<TRIPOS>MOLECULE
L3024_0_out.pdbqt
 33 35 0 0 0
SMALL
GASTEIGER

@<TRIPOS>ATOM
      1 C27         7.9320  -17.6800  -10.4530 C.ar    1  MOL1       -0.0240
      2 C28         8.1300  -18.2710  -11.7150 C.ar    1  MOL1       -0.0570
      3 C29         7.4630  -17.7760  -12.8400 C.ar    1  MOL1       -0.0610
      4 C30         6.5930  -16.6880  -12.7180 C.ar    1  MOL1       -0.0480
      5 C31         6.3900  -16.0900  -11.4700 C.ar    1  MOL1        0.0180
      6 Br32        5.2160  -14.5870  -11.3080 Br      1  MOL1       -0.0510
      7 C33         7.0510  -16.5850  -10.3420 C.ar    1  MOL1       -0.0430
      8  C6         8.6000  -18.2670   -9.2290 C.3     1  MOL1        0.0630
      9  C5         7.5390  -18.8350   -8.2700 C.3     1  MOL1        0.0510
     10  C1         8.1970  -22.5030   -9.4040 C.3     1  MOL1        0.0060
     11  N2         8.3140  -21.0620   -9.2320 N.am    1  MOL1       -0.3590
     12  C3         7.3850  -20.3190   -8.4350 C.2     1  MOL1        0.2220
     13  O4         6.4300  -20.9110   -7.8620 O.2     1  MOL1       -0.2750
     14  N7         9.4120  -17.2480   -8.5550 N.am    1  MOL1       -0.3460
     15  C8        10.6580  -17.5510   -7.9230 C.2     1  MOL1        0.2580
     16  O9        11.0970  -18.7310   -7.9190 O.2     1  MOL1       -0.2710
     17 C10        11.4610  -16.4660   -7.2710 C.3     1  MOL1        0.1670
     18 O11        12.6880  -16.9870   -6.7660 O.3     1  MOL1       -0.4800
     19 C12        13.9280  -16.4870   -7.1700 C.ar    1  MOL1        0.1660
     20 C13        14.4300  -15.2710   -6.6510 C.ar    1  MOL1        0.0120
     21 C21        15.7160  -14.8450   -7.0240 C.ar    1  MOL1       -0.0540
     22 C22        16.4710  -15.5860   -7.9330 C.ar    1  MOL1       -0.0580
     23 C23        15.9540  -16.7590   -8.4820 C.ar    1  MOL1       -0.0160
     24 C24        14.6760  -17.2170   -8.1080 C.ar    1  MOL1        0.1610
     25 C14        13.6180  -14.4130   -5.7050 C.3     1  MOL1        0.0280
     26 N15        13.7270  -14.9250   -4.3240 N.3     1  MOL1       -0.2870
     27 C16        14.4710  -13.9950   -3.4580 C.3     1  MOL1        0.0640
     28 C17        15.6160  -14.9710   -3.2700 C.3     1  MOL1        0.2720
     29 F18        15.7380  -15.4400   -1.9730 F       1  MOL1       -0.2040
     30 F19        16.8100  -14.5440   -3.8270 F       1  MOL1       -0.2040
     31 C20        14.8250  -15.8950   -4.1750 C.3     1  MOL1        0.0640
     32 O25        14.1200  -18.3900   -8.6380 O.3     1  MOL1       -0.4930
     33 C26        14.8580  -19.3890   -9.3340 C.3     1  MOL1        0.0780
@<TRIPOS>BOND
     1     3     4   ar
     2     3     2   ar
     3     4     5   ar
     4     2     1   ar
     5     5     6    1
     6     5     7   ar
     7     1     7   ar
     8     1     8    1
     9    10    11    1
    10    33    32    1
    11    11    12   am
    12     8    14    1
    13     8     9    1
    14    32    24    1
    15    14    15   am
    16    23    24   ar
    17    23    22   ar
    18    12     9    1
    19    12    13    2
    20    24    19   ar
    21    22    21   ar
    22    15    16    2
    23    15    17    1
    24    17    18    1
    25    19    18    1
    26    19    20   ar
    27    21    20   ar
    28    20    25    1
    29    25    26    1
    30    26    31    1
    31    26    27    1
    32    31    28    1
    33    30    28    1
    34    27    28    1
    35    28    29    1
