@<TRIPOS>MOLECULE
L3024_0_out.pdbqt
 33 35 0 0 0
SMALL
GASTEIGER

@<TRIPOS>ATOM
      1 C27         6.7560  -17.6680   -8.6570 C.ar    1  MOL1       -0.0240
      2 C28         6.3030  -18.9940   -8.5280 C.ar    1  MOL1       -0.0570
      3 C29         5.1870  -19.2860   -7.7370 C.ar    1  MOL1       -0.0610
      4 C30         4.5130  -18.2600   -7.0680 C.ar    1  MOL1       -0.0480
      5 C31         4.9510  -16.9370   -7.1910 C.ar    1  MOL1        0.0180
      6 Br32        4.0150  -15.5310   -6.2930 Br      1  MOL1       -0.0510
      7 C33         6.0700  -16.6420   -7.9760 C.ar    1  MOL1       -0.0430
      8  C6         8.0070  -17.3700   -9.4550 C.3     1  MOL1        0.0630
      9  C5         7.8080  -17.7890  -10.9230 C.3     1  MOL1        0.0510
     10  C1         9.2420  -21.4080  -10.7880 C.3     1  MOL1        0.0060
     11  N2         9.1010  -19.9660  -10.6480 N.am    1  MOL1       -0.3590
     12  C3         7.9280  -19.2760  -11.0920 C.2     1  MOL1        0.2220
     13  O4         6.9820  -19.9170  -11.6260 O.2     1  MOL1       -0.2750
     14  N7         9.1600  -18.0630   -8.8710 N.am    1  MOL1       -0.3460
     15  C8        10.0390  -17.4390   -7.9340 C.2     1  MOL1        0.2580
     16  O9         9.8490  -16.2440   -7.5830 O.2     1  MOL1       -0.2710
     17 C10        11.1890  -18.2030   -7.3470 C.3     1  MOL1        0.1670
     18 O11        12.4120  -17.8210   -7.9720 O.3     1  MOL1       -0.4800
     19 C12        13.6410  -17.9110   -7.3120 C.ar    1  MOL1        0.1660
     20 C13        14.3890  -19.1110   -7.3220 C.ar    1  MOL1        0.0120
     21 C21        15.6550  -19.1340   -6.7130 C.ar    1  MOL1       -0.0540
     22 C22        16.1500  -18.0020   -6.0660 C.ar    1  MOL1       -0.0580
     23 C23        15.3880  -16.8340   -6.0140 C.ar    1  MOL1       -0.0160
     24 C24        14.1250  -16.7810   -6.6340 C.ar    1  MOL1        0.1610
     25 C14        13.8620  -20.3730   -7.9680 C.3     1  MOL1        0.0280
     26 N15        14.0520  -21.5300   -7.0700 N.3     1  MOL1       -0.2870
     27 C16        14.2580  -22.7760   -7.8270 C.3     1  MOL1        0.0640
     28 C17        12.9540  -23.3750   -7.3390 C.3     1  MOL1        0.2720
     29 F18        13.1210  -24.4730   -6.5130 F       1  MOL1       -0.2040
     30 F19        12.0170  -23.5650   -8.3410 F       1  MOL1       -0.2040
     31 C20        12.7720  -22.0730   -6.5840 C.3     1  MOL1        0.0640
     32 O25        13.3290  -15.6280   -6.6040 O.3     1  MOL1       -0.4930
     33 C26        13.3670  -14.6480   -5.5720 C.3     1  MOL1        0.0780
@<TRIPOS>BOND
     1    13    12    2
     2    12     9    1
     3    12    11   am
     4     9     8    1
     5    10    11    1
     6     8    14    1
     7     8     1    1
     8    14    15   am
     9     1     2   ar
    10     1     7   ar
    11     2     3   ar
    12    30    28    1
    13     7     5   ar
    14    18    17    1
    15    18    19    1
    16    25    20    1
    17    25    26    1
    18    15    16    2
    19    15    17    1
    20    27    28    1
    21    27    26    1
    22     3     4   ar
    23    28    31    1
    24    28    29    1
    25    20    19   ar
    26    20    21   ar
    27    19    24   ar
    28     5     4   ar
    29     5     6    1
    30    26    31    1
    31    21    22   ar
    32    24    32    1
    33    24    23   ar
    34    32    33    1
    35    22    23   ar
