@<TRIPOS>MOLECULE
L3024_0_out.pdbqt
 33 35 0 0 0
SMALL
GASTEIGER

@<TRIPOS>ATOM
      1 C27         9.7370  -18.4190   -9.2190 C.ar    1  MOL1       -0.0240
      2 C28         9.5110  -17.4370   -8.2360 C.ar    1  MOL1       -0.0570
      3 C29         8.5620  -16.4310   -8.4460 C.ar    1  MOL1       -0.0610
      4 C30         7.8310  -16.3940   -9.6370 C.ar    1  MOL1       -0.0480
      5 C31         8.0440  -17.3660  -10.6210 C.ar    1  MOL1        0.0180
      6 Br32        7.0270  -17.3280  -12.2410 Br      1  MOL1       -0.0510
      7 C33         8.9960  -18.3710  -10.4170 C.ar    1  MOL1       -0.0430
      8  C6        10.8160  -19.4600   -9.0150 C.3     1  MOL1        0.0630
      9  C5        10.2250  -20.7050   -8.3300 C.3     1  MOL1        0.0510
     10  C1         8.2750  -22.4820  -11.1950 C.3     1  MOL1        0.0060
     11  N2         9.3460  -21.8980  -10.4010 N.am    1  MOL1       -0.3590
     12  C3         9.0970  -21.2900   -9.1290 C.2     1  MOL1        0.2220
     13  O4         7.9230  -21.2440   -8.6690 O.2     1  MOL1       -0.2750
     14  N7        11.9150  -18.9040   -8.2170 N.am    1  MOL1       -0.3460
     15  C8        13.1760  -18.5480   -8.7870 C.2     1  MOL1        0.2580
     16  O9        13.3870  -18.7160  -10.0170 O.2     1  MOL1       -0.2710
     17 C10        14.2560  -17.9590   -7.9300 C.3     1  MOL1        0.1670
     18 O11        14.0920  -18.3630   -6.5720 O.3     1  MOL1       -0.4800
     19 C12        15.0750  -18.1310   -5.6060 C.ar    1  MOL1        0.1660
     20 C13        16.0050  -19.1360   -5.2540 C.ar    1  MOL1        0.0120
     21 C21        17.0250  -18.8340   -4.3360 C.ar    1  MOL1       -0.0540
     22 C22        17.0910  -17.5740   -3.7410 C.ar    1  MOL1       -0.0580
     23 C23        16.1420  -16.6010   -4.0520 C.ar    1  MOL1       -0.0160
     24 C24        15.1230  -16.8730   -4.9840 C.ar    1  MOL1        0.1610
     25 C14        15.9320  -20.5290   -5.8380 C.3     1  MOL1        0.0280
     26 N15        17.1800  -20.8520   -6.5610 N.3     1  MOL1       -0.2870
     27 C16        17.2250  -20.2010   -7.8810 C.3     1  MOL1        0.0640
     28 C17        17.1650  -21.5250   -8.6170 C.3     1  MOL1        0.2720
     29 F18        18.3220  -21.8260   -9.3140 F       1  MOL1       -0.2040
     30 F19        16.0040  -21.7020   -9.3520 F       1  MOL1       -0.2040
     31 C20        17.1070  -22.1570   -7.2400 C.3     1  MOL1        0.0640
     32 O25        14.1500  -15.9230   -5.3230 O.3     1  MOL1       -0.4930
     33 C26        14.0900  -14.6040   -4.7890 C.3     1  MOL1        0.0780
@<TRIPOS>BOND
     1     6     5    1
     2    10    11    1
     3     5     7   ar
     4     5     4   ar
     5     7     1   ar
     6    11    12   am
     7    16    15    2
     8     4     3   ar
     9    30    28    1
    10    29    28    1
    11     1     8    1
    12     1     2   ar
    13    12    13    2
    14    12     9    1
    15     8     9    1
    16     8    14    1
    17    15    14   am
    18    15    17    1
    19    28    27    1
    20    28    31    1
    21     3     2   ar
    22    17    18    1
    23    27    26    1
    24    31    26    1
    25    18    19    1
    26    26    25    1
    27    25    20    1
    28    19    20   ar
    29    19    24   ar
    30    32    24    1
    31    32    33    1
    32    20    21   ar
    33    24    23   ar
    34    21    22   ar
    35    23    22   ar
