@<TRIPOS>MOLECULE
L3024_0_out.pdbqt
 33 35 0 0 0
SMALL
GASTEIGER

@<TRIPOS>ATOM
      1 C27         7.0570  -19.1780   -9.9310 C.ar    1  MOL1       -0.0240
      2 C28         7.0620  -20.0560  -11.0300 C.ar    1  MOL1       -0.0570
      3 C29         6.3870  -21.2790  -10.9610 C.ar    1  MOL1       -0.0610
      4 C30         5.7030  -21.6380   -9.7970 C.ar    1  MOL1       -0.0480
      5 C31         5.6880  -20.7730   -8.6970 C.ar    1  MOL1        0.0180
      6 Br32        4.7320  -21.2550   -7.1110 Br      1  MOL1       -0.0510
      7 C33         6.3650  -19.5510   -8.7610 C.ar    1  MOL1       -0.0430
      8  C6         7.8500  -17.8900   -9.9870 C.3     1  MOL1        0.0630
      9  C5         7.4480  -17.0780  -11.2320 C.3     1  MOL1        0.0510
     10  C1         4.6740  -14.3820  -11.6960 C.3     1  MOL1        0.0060
     11  N2         5.7430  -15.3330  -11.9650 N.am    1  MOL1       -0.3590
     12  C3         6.3550  -16.0970  -10.9200 C.2     1  MOL1        0.2220
     13  O4         5.9760  -15.9510   -9.7260 O.2     1  MOL1       -0.2750
     14  N7         9.2880  -18.1780  -10.0010 N.am    1  MOL1       -0.3460
     15  C8        10.1750  -17.7130   -8.9820 C.2     1  MOL1        0.2580
     16  O9         9.7370  -17.0190   -8.0260 O.2     1  MOL1       -0.2710
     17 C10        11.6330  -18.0590   -9.0300 C.3     1  MOL1        0.1670
     18 O11        12.0310  -18.7130   -7.8280 O.3     1  MOL1       -0.4800
     19 C12        12.6770  -19.9520   -7.8370 C.ar    1  MOL1        0.1660
     20 C13        14.0840  -20.0450   -7.7370 C.ar    1  MOL1        0.0120
     21 C21        14.6850  -21.3130   -7.6700 C.ar    1  MOL1       -0.0540
     22 C22        13.9090  -22.4690   -7.7510 C.ar    1  MOL1       -0.0580
     23 C23        12.5250  -22.3760   -7.9000 C.ar    1  MOL1       -0.0160
     24 C24        11.8980  -21.1160   -7.9490 C.ar    1  MOL1        0.1610
     25 C14        14.9620  -18.8140   -7.7010 C.3     1  MOL1        0.0280
     26 N15        16.3410  -19.1750   -7.3130 N.3     1  MOL1       -0.2870
     27 C16        16.6880  -18.6390   -5.9860 C.3     1  MOL1        0.0640
     28 C17        17.7350  -17.7030   -6.5570 C.3     1  MOL1        0.2720
     29 F18        19.0290  -18.0210   -6.1820 F       1  MOL1       -0.2040
     30 F19        17.4230  -16.3610   -6.4110 F       1  MOL1       -0.2040
     31 C20        17.3410  -18.2700   -7.9060 C.3     1  MOL1        0.0640
     32 O25        10.5110  -20.9790   -8.0990 O.3     1  MOL1       -0.4930
     33 C26         9.7420  -21.6290   -9.1060 C.3     1  MOL1        0.0780
@<TRIPOS>BOND
     1    11    10    1
     2    11    12   am
     3     9    12    1
     4     9     8    1
     5     2     3   ar
     6     2     1   ar
     7     3     4   ar
     8    12    13    2
     9    14     8    1
    10    14    15   am
    11     8     1    1
    12     1     7   ar
    13     4     5   ar
    14    33    32    1
    15    17    15    1
    16    17    18    1
    17    15    16    2
    18     7     5   ar
    19     5     6    1
    20    32    24    1
    21    24    23   ar
    22    24    19   ar
    23    31    26    1
    24    31    28    1
    25    23    22   ar
    26    19    18    1
    27    19    20   ar
    28    22    21   ar
    29    20    25    1
    30    20    21   ar
    31    25    26    1
    32    26    27    1
    33    28    30    1
    34    28    29    1
    35    28    27    1
