@<TRIPOS>MOLECULE
L3024_0_out.pdbqt
 33 35 0 0 0
SMALL
GASTEIGER

@<TRIPOS>ATOM
      1 C27        10.9720  -20.1890   -8.0690 C.ar    1  MOL1       -0.0240
      2 C28        10.2290  -21.0710   -8.8750 C.ar    1  MOL1       -0.0570
      3 C29        10.6050  -22.4140   -8.9860 C.ar    1  MOL1       -0.0610
      4 C30        11.7230  -22.8890   -8.2950 C.ar    1  MOL1       -0.0480
      5 C31        12.4680  -22.0230   -7.4870 C.ar    1  MOL1        0.0180
      6 Br32       13.9860  -22.6790   -6.5240 Br      1  MOL1       -0.0510
      7 C33        12.0990  -20.6780   -7.3780 C.ar    1  MOL1       -0.0430
      8  C6        10.6030  -18.7220   -8.0120 C.3     1  MOL1        0.0630
      9  C5         9.8990  -18.3040   -9.3160 C.3     1  MOL1        0.0510
     10  C1         6.1570  -17.9870   -8.2820 C.3     1  MOL1        0.0060
     11  N2         7.4770  -18.5330   -8.5630 N.am    1  MOL1       -0.3590
     12  C3         8.5460  -17.7130   -9.0460 C.2     1  MOL1        0.2220
     13  O4         8.3570  -16.4820   -9.2460 O.2     1  MOL1       -0.2750
     14  N7        11.8000  -17.9050   -7.7870 N.am    1  MOL1       -0.3460
     15  C8        11.7650  -16.6720   -7.0650 C.2     1  MOL1        0.2580
     16  O9        10.6770  -16.2380   -6.6010 O.2     1  MOL1       -0.2710
     17 C10        13.0230  -15.8880   -6.8410 C.3     1  MOL1        0.1670
     18 O11        13.9880  -16.6800   -6.1510 O.3     1  MOL1       -0.4800
     19 C12        15.2610  -16.1950   -5.8430 C.ar    1  MOL1        0.1660
     20 C13        16.2970  -16.1960   -6.8050 C.ar    1  MOL1        0.0120
     21 C21        17.5390  -15.6260   -6.4760 C.ar    1  MOL1       -0.0540
     22 C22        17.7640  -15.1080   -5.2010 C.ar    1  MOL1       -0.0580
     23 C23        16.7570  -15.1540   -4.2370 C.ar    1  MOL1       -0.0160
     24 C24        15.4990  -15.7020   -4.5490 C.ar    1  MOL1        0.1610
     25 C14        16.1060  -16.7970   -8.1800 C.3     1  MOL1        0.0280
     26 N15        16.8590  -18.0620   -8.3000 N.3     1  MOL1       -0.2870
     27 C16        16.6410  -18.7010   -9.6090 C.3     1  MOL1        0.0640
     28 C17        15.9230  -19.8850   -8.9930 C.3     1  MOL1        0.2720
     29 F18        16.6110  -21.0790   -9.1180 F       1  MOL1       -0.2040
     30 F19        14.5850  -19.9690   -9.3430 F       1  MOL1       -0.2040
     31 C20        16.1550  -19.1900   -7.6660 C.3     1  MOL1        0.0640
     32 O25        14.4600  -15.7670   -3.6090 O.3     1  MOL1       -0.4930
     33 C26        14.6380  -16.0880   -2.2340 C.3     1  MOL1        0.0780
@<TRIPOS>BOND
     1    27    28    1
     2    27    26    1
     3    30    28    1
     4     9    12    1
     5     9     8    1
     6    13    12    2
     7    29    28    1
     8    12    11   am
     9    28    31    1
    10     3     2   ar
    11     3     4   ar
    12     2     1   ar
    13    11    10    1
    14    26    25    1
    15    26    31    1
    16     4     5   ar
    17    25    20    1
    18     1     8    1
    19     1     7   ar
    20     8    14    1
    21    14    15   am
    22     5     7   ar
    23     5     6    1
    24    15    17    1
    25    15    16    2
    26    17    18    1
    27    20    21   ar
    28    20    19   ar
    29    21    22   ar
    30    18    19    1
    31    19    24   ar
    32    22    23   ar
    33    24    23   ar
    34    24    32    1
    35    32    33    1
