@<TRIPOS>MOLECULE
L3024_0_out.pdbqt
 33 35 0 0 0
SMALL
GASTEIGER

@<TRIPOS>ATOM
      1 C27        13.6130  -19.6120   -8.3450 C.ar    1  MOL1       -0.0240
      2 C28        14.9080  -19.8090   -8.8580 C.ar    1  MOL1       -0.0570
      3 C29        15.5790  -21.0180   -8.6420 C.ar    1  MOL1       -0.0610
      4 C30        14.9640  -22.0400   -7.9120 C.ar    1  MOL1       -0.0480
      5 C31        13.6750  -21.8580   -7.3990 C.ar    1  MOL1        0.0180
      6 Br32       12.8270  -23.2650   -6.4200 Br      1  MOL1       -0.0510
      7 C33        13.0040  -20.6490   -7.6090 C.ar    1  MOL1       -0.0430
      8  C6        12.9240  -18.2760   -8.5210 C.3     1  MOL1        0.0630
      9  C5        12.1800  -18.2400   -9.8680 C.3     1  MOL1        0.0510
     10  C1         8.3950  -18.7200  -10.6540 C.3     1  MOL1        0.0060
     11  N2         9.8370  -18.5850  -10.8050 N.am    1  MOL1       -0.3590
     12  C3        10.6960  -18.3640   -9.6810 C.2     1  MOL1        0.2220
     13  O4        10.2090  -18.2760   -8.5200 O.2     1  MOL1       -0.2750
     14  N7        13.9020  -17.1860   -8.4420 N.am    1  MOL1       -0.3460
     15  C8        13.9390  -16.2630   -7.3510 C.2     1  MOL1        0.2580
     16  O9        13.1070  -16.3580   -6.4110 O.2     1  MOL1       -0.2710
     17 C10        14.9770  -15.1820   -7.3070 C.3     1  MOL1        0.1670
     18 O11        16.2280  -15.6710   -7.7860 O.3     1  MOL1       -0.4800
     19 C12        17.0200  -16.5430   -7.0350 C.ar    1  MOL1        0.1660
     20 C13        17.1860  -16.3630   -5.6420 C.ar    1  MOL1        0.0120
     21 C21        17.9260  -17.3090   -4.9130 C.ar    1  MOL1       -0.0540
     22 C22        18.5310  -18.3860   -5.5600 C.ar    1  MOL1       -0.0580
     23 C23        18.4080  -18.5340   -6.9410 C.ar    1  MOL1       -0.0160
     24 C24        17.6550  -17.6110   -7.6900 C.ar    1  MOL1        0.1610
     25 C14        16.5900  -15.1790   -4.9150 C.3     1  MOL1        0.0280
     26 N15        16.1960  -15.5600   -3.5430 N.3     1  MOL1       -0.2870
     27 C16        14.9820  -16.3940   -3.5410 C.3     1  MOL1        0.0640
     28 C17        14.1640  -15.3310   -2.8350 C.3     1  MOL1        0.2720
     29 F18        13.7730  -15.6880   -1.5570 F       1  MOL1       -0.2040
     30 F19        13.1410  -14.8080   -3.6100 F       1  MOL1       -0.2040
     31 C20        15.4300  -14.4980   -2.8690 C.3     1  MOL1        0.0640
     32 O25        17.5070  -17.7220   -9.0800 O.3     1  MOL1       -0.4930
     33 C26        18.3090  -18.5550   -9.9110 C.3     1  MOL1        0.0780
@<TRIPOS>BOND
     1    11    10    1
     2    11    12   am
     3    33    32    1
     4     9    12    1
     5     9     8    1
     6    12    13    2
     7    32    24    1
     8     2     3   ar
     9     2     1   ar
    10     3     4   ar
    11     8    14    1
    12     8     1    1
    13    14    15   am
    14     1     7   ar
    15     4     5   ar
    16    18    17    1
    17    18    19    1
    18    24    19   ar
    19    24    23   ar
    20     7     5   ar
    21     5     6    1
    22    15    17    1
    23    15    16    2
    24    19    20   ar
    25    23    22   ar
    26    20    25    1
    27    20    21   ar
    28    22    21   ar
    29    25    26    1
    30    30    28    1
    31    26    27    1
    32    26    31    1
    33    27    28    1
    34    31    28    1
    35    28    29    1
