@<TRIPOS>MOLECULE
L3024_0_out.pdbqt
 33 35 0 0 0
SMALL
GASTEIGER

@<TRIPOS>ATOM
      1 C27         8.0840  -17.3970   -9.8310 C.ar    1  MOL1       -0.0240
      2 C28         7.5730  -17.4550   -8.5220 C.ar    1  MOL1       -0.0570
      3 C29         6.3940  -16.7770   -8.1920 C.ar    1  MOL1       -0.0610
      4 C30         5.7170  -16.0340   -9.1630 C.ar    1  MOL1       -0.0480
      5 C31         6.2140  -15.9700  -10.4690 C.ar    1  MOL1        0.0180
      6 Br32        5.2740  -14.9710  -11.8030 Br      1  MOL1       -0.0510
      7 C33         7.3940  -16.6430  -10.8020 C.ar    1  MOL1       -0.0430
      8  C6         9.3970  -18.0730  -10.1620 C.3     1  MOL1        0.0630
      9  C5         9.1370  -19.3840  -10.9260 C.3     1  MOL1        0.0510
     10  C1         6.9010  -21.5660   -8.5990 C.3     1  MOL1        0.0060
     11  N2         8.0420  -20.8580   -9.1600 N.am    1  MOL1       -0.3590
     12  C3         7.9440  -20.1120  -10.3780 C.2     1  MOL1        0.2220
     13  O4         6.8480  -20.0600  -11.0010 O.2     1  MOL1       -0.2750
     14  N7        10.1590  -18.3330   -8.9350 N.am    1  MOL1       -0.3460
     15  C8        11.5740  -18.1520   -8.8560 C.2     1  MOL1        0.2580
     16  O9        12.2230  -17.7660   -9.8640 O.2     1  MOL1       -0.2710
     17 C10        12.3000  -18.4070   -7.5690 C.3     1  MOL1        0.1670
     18 O11        13.6420  -17.9330   -7.6510 O.3     1  MOL1       -0.4800
     19 C12        14.5070  -17.9620   -6.5530 C.ar    1  MOL1        0.1660
     20 C13        15.1620  -19.1550   -6.1700 C.ar    1  MOL1        0.0120
     21 C21        16.0830  -19.1210   -5.1100 C.ar    1  MOL1       -0.0540
     22 C22        16.3140  -17.9360   -4.4110 C.ar    1  MOL1       -0.0580
     23 C23        15.6300  -16.7710   -4.7590 C.ar    1  MOL1       -0.0160
     24 C24        14.7170  -16.7770   -5.8300 C.ar    1  MOL1        0.1610
     25 C14        14.8960  -20.4700   -6.8690 C.3     1  MOL1        0.0280
     26 N15        14.3390  -21.4550   -5.9200 N.3     1  MOL1       -0.2870
     27 C16        14.4850  -22.8330   -6.4220 C.3     1  MOL1        0.0640
     28 C17        12.9870  -23.0180   -6.5630 C.3     1  MOL1        0.2720
     29 F18        12.4580  -23.9550   -5.6920 F       1  MOL1       -0.2040
     30 F19        12.5640  -23.1690   -7.8740 F       1  MOL1       -0.2040
     31 C20        12.8780  -21.5930   -6.0560 C.3     1  MOL1        0.0640
     32 O25        14.0080  -15.6280   -6.2110 O.3     1  MOL1       -0.4930
     33 C26        12.7270  -15.2680   -5.7050 C.3     1  MOL1        0.0780
@<TRIPOS>BOND
     1     6     5    1
     2    13    12    2
     3     9    12    1
     4     9     8    1
     5     7     5   ar
     6     7     1   ar
     7     5     4   ar
     8    12    11   am
     9     8     1    1
    10     8    14    1
    11    16    15    2
    12     1     2   ar
    13     4     3   ar
    14    11    10    1
    15    14    15   am
    16    15    17    1
    17     2     3   ar
    18    30    28    1
    19    18    17    1
    20    18    19    1
    21    25    20    1
    22    25    26    1
    23    28    27    1
    24    28    31    1
    25    28    29    1
    26    19    20   ar
    27    19    24   ar
    28    27    26    1
    29    32    24    1
    30    32    33    1
    31    20    21   ar
    32    31    26    1
    33    24    23   ar
    34    21    22   ar
    35    23    22   ar
