@<TRIPOS>MOLECULE
L3024_0_out.pdbqt
 33 35 0 0 0
SMALL
GASTEIGER

@<TRIPOS>ATOM
      1 C27         8.4680  -20.5250   -8.7030 C.ar    1  MOL1       -0.0240
      2 C28         7.1220  -20.9290   -8.6360 C.ar    1  MOL1       -0.0570
      3 C29         6.7280  -22.1660   -9.1580 C.ar    1  MOL1       -0.0610
      4 C30         7.6710  -23.0090   -9.7520 C.ar    1  MOL1       -0.0480
      5 C31         9.0130  -22.6200   -9.8220 C.ar    1  MOL1        0.0180
      6 Br32       10.3070  -23.7850  -10.6150 Br      1  MOL1       -0.0510
      7 C33         9.4110  -21.3830   -9.3060 C.ar    1  MOL1       -0.0430
      8  C6         8.8740  -19.1560   -8.2010 C.3     1  MOL1        0.0630
      9  C5         7.7560  -18.1370   -8.4880 C.3     1  MOL1        0.0510
     10  C1         7.7530  -17.7760  -12.3660 C.3     1  MOL1        0.0060
     11  N2         7.6380  -18.3290  -11.0240 N.am    1  MOL1       -0.3590
     12  C3         7.8940  -17.5400   -9.8580 C.2     1  MOL1        0.2220
     13  O4         8.2360  -16.3310   -9.9750 O.2     1  MOL1       -0.2750
     14  N7        10.1300  -18.7350   -8.8310 N.am    1  MOL1       -0.3460
     15  C8        11.1180  -17.9680   -8.1390 C.2     1  MOL1        0.2580
     16  O9        10.9270  -17.6160   -6.9450 O.2     1  MOL1       -0.2710
     17 C10        12.3970  -17.5870   -8.8220 C.3     1  MOL1        0.1670
     18 O11        13.4910  -17.6660   -7.9120 O.3     1  MOL1       -0.4800
     19 C12        14.6290  -16.8660   -8.0500 C.ar    1  MOL1        0.1660
     20 C13        14.7140  -15.6010   -7.4230 C.ar    1  MOL1        0.0120
     21 C21        15.9060  -14.8660   -7.5230 C.ar    1  MOL1       -0.0540
     22 C22        16.9780  -15.3530   -8.2710 C.ar    1  MOL1       -0.0580
     23 C23        16.8740  -16.5780   -8.9300 C.ar    1  MOL1       -0.0160
     24 C24        15.6970  -17.3420   -8.8280 C.ar    1  MOL1        0.1610
     25 C14        13.5540  -15.0170   -6.6480 C.3     1  MOL1        0.0280
     26 N15        13.3880  -15.7190   -5.3590 N.3     1  MOL1       -0.2870
     27 C16        12.8320  -14.8290   -4.3260 C.3     1  MOL1        0.0640
     28 C17        14.1020  -14.8720   -3.5000 C.3     1  MOL1        0.2720
     29 F18        13.9520  -15.5100   -2.2810 F       1  MOL1       -0.2040
     30 F19        14.7560  -13.6540   -3.4190 F       1  MOL1       -0.2040
     31 C20        14.6440  -15.7750   -4.5920 C.3     1  MOL1        0.0640
     32 O25        15.5510  -18.5770   -9.4760 O.3     1  MOL1       -0.4930
     33 C26        16.6350  -19.3790   -9.9340 C.3     1  MOL1        0.0780
@<TRIPOS>BOND
     1    10    11    1
     2    11    12   am
     3     6     5    1
     4    13    12    2
     5    33    32    1
     6    12     9    1
     7     5     4   ar
     8     5     7   ar
     9     4     3   ar
    10    32    24    1
    11     7     1   ar
    12     3     2   ar
    13    23    24   ar
    14    23    22   ar
    15    14     8    1
    16    14    15   am
    17    24    19   ar
    18    17    15    1
    19    17    18    1
    20     1     2   ar
    21     1     8    1
    22     9     8    1
    23    22    21   ar
    24    15    16    2
    25    19    18    1
    26    19    20   ar
    27    21    20   ar
    28    20    25    1
    29    25    26    1
    30    26    31    1
    31    26    27    1
    32    31    28    1
    33    27    28    1
    34    28    30    1
    35    28    29    1
