@<TRIPOS>MOLECULE
L3024_0_out.pdbqt
 33 35 0 0 0
SMALL
GASTEIGER

@<TRIPOS>ATOM
      1 C27         8.8490  -19.5220   -9.3090 C.ar    1  MOL1       -0.0240
      2 C28         9.1860  -19.0960  -10.6060 C.ar    1  MOL1       -0.0570
      3 C29        10.5200  -18.8460  -10.9450 C.ar    1  MOL1       -0.0610
      4 C30        11.5290  -19.0190   -9.9940 C.ar    1  MOL1       -0.0480
      5 C31        11.2090  -19.4460   -8.7010 C.ar    1  MOL1        0.0180
      6 Br32       12.5930  -19.7030   -7.4060 Br      1  MOL1       -0.0510
      7 C33         9.8750  -19.6910   -8.3570 C.ar    1  MOL1       -0.0430
      8  C6         7.3970  -19.7190   -8.9290 C.3     1  MOL1        0.0630
      9  C5         6.9050  -21.0910   -9.4240 C.3     1  MOL1        0.0510
     10  C1         4.0470  -21.8030   -6.8740 C.3     1  MOL1        0.0060
     11  N2         5.3480  -21.4910   -7.4480 N.am    1  MOL1       -0.3590
     12  C3         5.5530  -21.4260   -8.8630 C.2     1  MOL1        0.2220
     13  O4         4.5930  -21.6460   -9.6520 O.2     1  MOL1       -0.2750
     14  N7         6.5750  -18.6420   -9.4900 N.am    1  MOL1       -0.3460
     15  C8         6.7390  -17.2730   -9.1140 C.2     1  MOL1        0.2580
     16  O9         7.6080  -16.9480   -8.2620 O.2     1  MOL1       -0.2710
     17 C10         5.8880  -16.2080   -9.7380 C.3     1  MOL1        0.1670
     18 O11         5.2930  -15.3910   -8.7320 O.3     1  MOL1       -0.4800
     19 C12         3.9290  -15.0880   -8.7340 C.ar    1  MOL1        0.1660
     20 C13         3.3300  -14.4180   -9.8250 C.ar    1  MOL1        0.0120
     21 C21         1.9420  -14.2040   -9.8200 C.ar    1  MOL1       -0.0540
     22 C22         1.1680  -14.6040   -8.7300 C.ar    1  MOL1       -0.0580
     23 C23         1.7690  -15.2200   -7.6320 C.ar    1  MOL1       -0.0160
     24 C24         3.1550  -15.4630   -7.6230 C.ar    1  MOL1        0.1610
     25 C14         4.1440  -13.9230  -11.0000 C.3     1  MOL1        0.0280
     26 N15         3.3750  -12.9300  -11.7780 N.3     1  MOL1       -0.2870
     27 C16         3.3650  -13.2590  -13.2140 C.3     1  MOL1        0.0640
     28 C17         4.1710  -12.0280  -13.5770 C.3     1  MOL1        0.2720
     29 F18         3.4650  -11.1010  -14.3240 F       1  MOL1       -0.2040
     30 F19         5.4290  -12.3140  -14.0810 F       1  MOL1       -0.2040
     31 C20         4.1720  -11.7310  -12.0900 C.3     1  MOL1        0.0640
     32 O25         3.7980  -16.0780   -6.5390 O.3     1  MOL1       -0.4930
     33 C26         4.5910  -17.2570   -6.6360 C.3     1  MOL1        0.0780
@<TRIPOS>BOND
     1    29    28    1
     2    30    28    1
     3    28    27    1
     4    28    31    1
     5    27    26    1
     6    31    26    1
     7    26    25    1
     8    25    20    1
     9     3     2   ar
    10     3     4   ar
    11     2     1   ar
    12     4     5   ar
    13    20    21   ar
    14    20    19   ar
    15    21    22   ar
    16    17    15    1
    17    17    18    1
    18    13    12    2
    19    14    15   am
    20    14     8    1
    21     9     8    1
    22     9    12    1
    23     1     8    1
    24     1     7   ar
    25    15    16    2
    26    12    11   am
    27    19    18    1
    28    19    24   ar
    29    22    23   ar
    30     5     7   ar
    31     5     6    1
    32    23    24   ar
    33    24    32    1
    34    11    10    1
    35    33    32    1
