@<TRIPOS>MOLECULE
L3024_0_out.pdbqt
 33 35 0 0 0
SMALL
GASTEIGER

@<TRIPOS>ATOM
      1 C27         9.7050  -20.9610   -8.8600 C.ar    1  MOL1       -0.0240
      2 C28        10.1920  -22.1940   -9.3290 C.ar    1  MOL1       -0.0570
      3 C29         9.3070  -23.1850   -9.7670 C.ar    1  MOL1       -0.0610
      4 C30         7.9290  -22.9550   -9.7410 C.ar    1  MOL1       -0.0480
      5 C31         7.4300  -21.7320   -9.2790 C.ar    1  MOL1        0.0180
      6 Br32        5.5450  -21.4100   -9.2640 Br      1  MOL1       -0.0510
      7 C33         8.3120  -20.7410   -8.8360 C.ar    1  MOL1       -0.0430
      8  C6        10.6650  -19.9230   -8.3200 C.3     1  MOL1        0.0630
      9  C5        10.5120  -18.6060   -9.1020 C.3     1  MOL1        0.0510
     10  C1        11.5230  -15.9370   -6.4520 C.3     1  MOL1        0.0060
     11  N2        11.5560  -17.0840   -7.3480 N.am    1  MOL1       -0.3590
     12  C3        10.4420  -17.4230   -8.1810 C.2     1  MOL1        0.2220
     13  O4         9.3920  -16.7250   -8.1480 O.2     1  MOL1       -0.2750
     14  N7        12.0440  -20.4150   -8.4010 N.am    1  MOL1       -0.3460
     15  C8        12.8440  -20.6570   -7.2420 C.2     1  MOL1        0.2580
     16  O9        12.3790  -20.4380   -6.0920 O.2     1  MOL1       -0.2710
     17 C10        14.2400  -21.1850   -7.3810 C.3     1  MOL1        0.1670
     18 O11        15.1090  -20.1730   -7.8860 O.3     1  MOL1       -0.4800
     19 C12        16.2870  -19.8120   -7.2270 C.ar    1  MOL1        0.1660
     20 C13        16.3270  -18.6970   -6.3590 C.ar    1  MOL1        0.0120
     21 C21        17.5110  -18.4170   -5.6560 C.ar    1  MOL1       -0.0540
     22 C22        18.6500  -19.1990   -5.8480 C.ar    1  MOL1       -0.0580
     23 C23        18.6230  -20.2680   -6.7430 C.ar    1  MOL1       -0.0160
     24 C24        17.4430  -20.5800   -7.4430 C.ar    1  MOL1        0.1610
     25 C14        15.1280  -17.7940   -6.1660 C.3     1  MOL1        0.0280
     26 N15        15.0870  -16.7600   -7.2200 N.3     1  MOL1       -0.2870
     27 C16        16.4060  -16.5730   -7.8470 C.3     1  MOL1        0.0640
     28 C17        16.5440  -15.1630   -7.3080 C.3     1  MOL1        0.2720
     29 F18        16.5270  -14.1880   -8.2900 F       1  MOL1       -0.2040
     30 F19        17.5700  -15.0160   -6.3880 F       1  MOL1       -0.2040
     31 C20        15.1900  -15.3990   -6.6670 C.3     1  MOL1        0.0640
     32 O25        17.3750  -21.6460   -8.3520 O.3     1  MOL1       -0.4930
     33 C26        17.6320  -21.5320   -9.7480 C.3     1  MOL1        0.0780
@<TRIPOS>BOND
     1     3     4   ar
     2     3     2   ar
     3    33    32    1
     4     4     5   ar
     5     2     1   ar
     6     5     6    1
     7     5     7   ar
     8     9     8    1
     9     9    12    1
    10     1     7   ar
    11     1     8    1
    12    14     8    1
    13    14    15   am
    14    32    24    1
    15    29    28    1
    16    12    13    2
    17    12    11   am
    18    18    17    1
    19    18    19    1
    20    27    28    1
    21    27    26    1
    22    24    19   ar
    23    24    23   ar
    24    17    15    1
    25    11    10    1
    26    28    31    1
    27    28    30    1
    28    15    16    2
    29    19    20   ar
    30    26    31    1
    31    26    25    1
    32    23    22   ar
    33    20    25    1
    34    20    21   ar
    35    22    21   ar
