@<TRIPOS>MOLECULE
L3024_0_out.pdbqt
 33 35 0 0 0
SMALL
GASTEIGER

@<TRIPOS>ATOM
      1 C27        15.5070  -18.1410   -2.2150 C.ar    1  MOL1       -0.0240
      2 C28        14.5730  -17.4410   -1.4290 C.ar    1  MOL1       -0.0570
      3 C29        14.7720  -16.0900   -1.1280 C.ar    1  MOL1       -0.0610
      4 C30        15.9030  -15.4240   -1.6080 C.ar    1  MOL1       -0.0480
      5 C31        16.8380  -16.1070   -2.3940 C.ar    1  MOL1        0.0180
      6 Br32       18.3760  -15.1890   -3.0680 Br      1  MOL1       -0.0510
      7 C33        16.6450  -17.4600   -2.6920 C.ar    1  MOL1       -0.0430
      8  C6        15.3210  -19.6200   -2.4740 C.3     1  MOL1        0.0630
      9  C5        15.9580  -20.4390   -1.3370 C.3     1  MOL1        0.0510
     10  C1        14.3510  -20.4110    2.2120 C.3     1  MOL1        0.0060
     11  N2        15.2770  -20.2090    1.1070 N.am    1  MOL1       -0.3590
     12  C3        14.9860  -20.6720   -0.2160 C.2     1  MOL1        0.2220
     13  O4        13.9060  -21.2790   -0.4500 O.2     1  MOL1       -0.2750
     14  N7        15.9100  -19.9870   -3.7670 N.am    1  MOL1       -0.3460
     15  C8        15.1460  -20.5790   -4.8190 C.2     1  MOL1        0.2580
     16  O9        13.9200  -20.8170   -4.6580 O.2     1  MOL1       -0.2710
     17 C10        15.7920  -20.9110   -6.1310 C.3     1  MOL1        0.1670
     18 O11        17.0170  -20.1960   -6.2790 O.3     1  MOL1       -0.4800
     19 C12        17.2770  -19.3940   -7.3940 C.ar    1  MOL1        0.1660
     20 C13        16.8310  -18.0540   -7.4500 C.ar    1  MOL1        0.0120
     21 C21        17.1830  -17.2610   -8.5550 C.ar    1  MOL1       -0.0540
     22 C22        17.9220  -17.8000   -9.6080 C.ar    1  MOL1       -0.0580
     23 C23        18.3170  -19.1380   -9.5730 C.ar    1  MOL1       -0.0160
     24 C24        17.9940  -19.9460   -8.4680 C.ar    1  MOL1        0.1610
     25 C14        15.9830  -17.4490   -6.3530 C.3     1  MOL1        0.0280
     26 N15        15.4470  -16.1400   -6.7780 N.3     1  MOL1       -0.2870
     27 C16        15.6520  -15.1100   -5.7450 C.3     1  MOL1        0.0640
     28 C17        14.1640  -14.9620   -5.4930 C.3     1  MOL1        0.2720
     29 F18        13.6570  -13.7300   -5.8690 F       1  MOL1       -0.2040
     30 F19        13.7700  -15.3700   -4.2290 F       1  MOL1       -0.2040
     31 C20        13.9950  -16.0340   -6.5520 C.3     1  MOL1        0.0640
     32 O25        18.3720  -21.2950   -8.3940 O.3     1  MOL1       -0.4930
     33 C26        19.7160  -21.7590   -8.4540 C.3     1  MOL1        0.0780
@<TRIPOS>BOND
     1    22    23   ar
     2    22    21   ar
     3    23    24   ar
     4    21    20   ar
     5    24    32    1
     6    24    19   ar
     7    33    32    1
     8    20    19   ar
     9    20    25    1
    10    19    18    1
    11    26    31    1
    12    26    25    1
    13    26    27    1
    14    31    28    1
    15    18    17    1
    16    17    15    1
    17    29    28    1
    18    27    28    1
    19    28    30    1
    20    15    16    2
    21    15    14   am
    22    14     8    1
    23     6     5    1
    24     7     5   ar
    25     7     1   ar
    26     8     1    1
    27     8     9    1
    28     5     4   ar
    29     1     2   ar
    30     4     3   ar
    31     2     3   ar
    32     9    12    1
    33    13    12    2
    34    12    11   am
    35    11    10    1
