@<TRIPOS>MOLECULE
L3024_0_out.pdbqt
 33 35 0 0 0
SMALL
GASTEIGER

@<TRIPOS>ATOM
      1 C27        10.3410  -18.1140   -9.1860 C.ar    1  MOL1       -0.0240
      2 C28        10.5580  -18.8270  -10.3790 C.ar    1  MOL1       -0.0570
      3 C29         9.5900  -18.8270  -11.3890 C.ar    1  MOL1       -0.0610
      4 C30         8.3970  -18.1180  -11.2180 C.ar    1  MOL1       -0.0480
      5 C31         8.1700  -17.4020  -10.0380 C.ar    1  MOL1        0.0180
      6 Br32        6.5480  -16.4140   -9.8140 Br      1  MOL1       -0.0510
      7 C33         9.1340  -17.4040   -9.0240 C.ar    1  MOL1       -0.0430
      8  C6        11.3610  -18.1770   -8.0700 C.3     1  MOL1        0.0630
      9  C5        12.5180  -17.2030   -8.3570 C.3     1  MOL1        0.0510
     10  C1        14.5680  -15.5310   -5.4980 C.3     1  MOL1        0.0060
     11  N2        14.2050  -16.3260   -6.6620 N.am    1  MOL1       -0.3590
     12  C3        12.8590  -16.3820   -7.1470 C.2     1  MOL1        0.2220
     13  O4        11.9480  -15.7360   -6.5610 O.2     1  MOL1       -0.2750
     14  N7        11.8640  -19.5470   -7.9180 N.am    1  MOL1       -0.3460
     15  C8        11.2680  -20.4910   -7.0270 C.2     1  MOL1        0.2580
     16  O9        10.2770  -20.1610   -6.3220 O.2     1  MOL1       -0.2710
     17 C10        11.8060  -21.8870   -6.9300 C.3     1  MOL1        0.1670
     18 O11        12.0190  -22.4310   -8.2300 O.3     1  MOL1       -0.4800
     19 C12        11.3780  -23.5960   -8.6600 C.ar    1  MOL1        0.1660
     20 C13        10.1600  -23.5390   -9.3770 C.ar    1  MOL1        0.0120
     21 C21         9.5920  -24.7300   -9.8580 C.ar    1  MOL1       -0.0540
     22 C22        10.1940  -25.9600   -9.5930 C.ar    1  MOL1       -0.0580
     23 C23        11.3690  -26.0180   -8.8430 C.ar    1  MOL1       -0.0160
     24 C24        11.9680  -24.8360   -8.3670 C.ar    1  MOL1        0.1610
     25 C14         9.4500  -22.2290   -9.6380 C.3     1  MOL1        0.0280
     26 N15         8.0300  -22.3250   -9.2440 N.3     1  MOL1       -0.2870
     27 C16         7.1760  -22.6990  -10.3840 C.3     1  MOL1        0.0640
     28 C17         6.4630  -21.3610  -10.3840 C.3     1  MOL1        0.2720
     29 F18         5.1260  -21.4440  -10.0370 F       1  MOL1       -0.2040
     30 F19         6.7030  -20.6020  -11.5180 F       1  MOL1       -0.2040
     31 C20         7.3690  -21.0080   -9.2210 C.3     1  MOL1        0.0640
     32 O25        13.1480  -24.8520   -7.6090 O.3     1  MOL1       -0.4930
     33 C26        13.2450  -24.4040   -6.2610 C.3     1  MOL1        0.0780
@<TRIPOS>BOND
     1    30    28    1
     2     3     4   ar
     3     3     2   ar
     4     4     5   ar
     5    28    27    1
     6    28    29    1
     7    28    31    1
     8    27    26    1
     9     2     1   ar
    10     5     6    1
    11     5     7   ar
    12    21    22   ar
    13    21    20   ar
    14    25    20    1
    15    25    26    1
    16    22    23   ar
    17    20    19   ar
    18    26    31    1
    19     1     7   ar
    20     1     8    1
    21    23    24   ar
    22    19    24   ar
    23    19    18    1
    24    24    32    1
    25     9     8    1
    26     9    12    1
    27    18    17    1
    28     8    14    1
    29    14    15   am
    30    32    33    1
    31    12    11   am
    32    12    13    2
    33    15    17    1
    34    15    16    2
    35    11    10    1
