@<TRIPOS>MOLECULE
L3024_0_out.pdbqt
 33 35 0 0 0
SMALL
GASTEIGER

@<TRIPOS>ATOM
      1 C27        14.8480  -18.0710   -7.4020 C.ar    1  MOL1       -0.0240
      2 C28        15.3940  -17.2530   -8.4080 C.ar    1  MOL1       -0.0570
      3 C29        15.9180  -15.9950   -8.0900 C.ar    1  MOL1       -0.0610
      4 C30        15.9010  -15.5420   -6.7690 C.ar    1  MOL1       -0.0480
      5 C31        15.3630  -16.3470   -5.7580 C.ar    1  MOL1        0.0180
      6 Br32       15.3610  -15.7350   -3.9450 Br      1  MOL1       -0.0510
      7 C33        14.8340  -17.6030   -6.0720 C.ar    1  MOL1       -0.0430
      8  C6        14.2180  -19.3990   -7.7640 C.3     1  MOL1        0.0630
      9  C5        14.9490  -20.0180   -8.9700 C.3     1  MOL1        0.0510
     10  C1        18.0210  -21.9350   -7.5350 C.3     1  MOL1        0.0060
     11  N2        17.1280  -20.8670   -7.9620 N.am    1  MOL1       -0.3590
     12  C3        15.8510  -21.1410   -8.5490 C.2     1  MOL1        0.2220
     13  O4        15.4740  -22.3330   -8.7140 O.2     1  MOL1       -0.2750
     14  N7        12.7920  -19.2210   -8.0600 N.am    1  MOL1       -0.3460
     15  C8        11.7910  -20.1260   -7.5910 C.2     1  MOL1        0.2580
     16  O9        12.1140  -21.1310   -6.9030 O.2     1  MOL1       -0.2710
     17 C10        10.3440  -19.8830   -7.9010 C.3     1  MOL1        0.1670
     18 O11        10.1010  -20.0340   -9.2980 O.3     1  MOL1       -0.4800
     19 C12         8.9580  -20.6730   -9.7860 C.ar    1  MOL1        0.1660
     20 C13         7.8040  -19.9380  -10.1400 C.ar    1  MOL1        0.0120
     21 C21         6.7070  -20.6120  -10.7020 C.ar    1  MOL1       -0.0540
     22 C22         6.7350  -21.9970  -10.8640 C.ar    1  MOL1       -0.0580
     23 C23         7.8560  -22.7270  -10.4680 C.ar    1  MOL1       -0.0160
     24 C24         8.9750  -22.0710   -9.9220 C.ar    1  MOL1        0.1610
     25 C14         7.7160  -18.4420   -9.9290 C.3     1  MOL1        0.0280
     26 N15         7.4390  -18.1370   -8.5100 N.3     1  MOL1       -0.2870
     27 C16         5.9940  -18.1450   -8.2270 C.3     1  MOL1        0.0640
     28 C17         5.9700  -16.6590   -7.9290 C.3     1  MOL1        0.2720
     29 F18         5.6900  -16.3620   -6.6060 F       1  MOL1       -0.2040
     30 F19         5.2310  -15.9190   -8.8380 F       1  MOL1       -0.2040
     31 C20         7.4530  -16.6890   -8.2410 C.3     1  MOL1        0.0640
     32 O25        10.1200  -22.7680   -9.5100 O.3     1  MOL1       -0.4930
     33 C26        10.1910  -24.1810   -9.3530 C.3     1  MOL1        0.0780
@<TRIPOS>BOND
     1    22    21   ar
     2    22    23   ar
     3    21    20   ar
     4    23    24   ar
     5    20    25    1
     6    20    19   ar
     7    25    26    1
     8    24    19   ar
     9    24    32    1
    10    19    18    1
    11    32    33    1
    12    18    17    1
    13     9    12    1
    14     9     8    1
    15    30    28    1
    16    13    12    2
    17    12    11   am
    18    26    31    1
    19    26    27    1
    20     2     3   ar
    21     2     1   ar
    22    31    28    1
    23    27    28    1
    24     3     4   ar
    25    14     8    1
    26    14    15   am
    27    11    10    1
    28    28    29    1
    29    17    15    1
    30     8     1    1
    31    15    16    2
    32     1     7   ar
    33     4     5   ar
    34     7     5   ar
    35     5     6    1
