@<TRIPOS>MOLECULE
L3024_0_out.pdbqt
 33 35 0 0 0
SMALL
GASTEIGER

@<TRIPOS>ATOM
      1 C27        16.8760  -18.0920   -8.7950 C.ar    1  MOL1       -0.0240
      2 C28        17.7310  -19.1450   -8.4230 C.ar    1  MOL1       -0.0570
      3 C29        18.9360  -19.3520   -9.1040 C.ar    1  MOL1       -0.0610
      4 C30        19.2980  -18.5110  -10.1600 C.ar    1  MOL1       -0.0480
      5 C31        18.4580  -17.4580  -10.5370 C.ar    1  MOL1        0.0180
      6 Br32       18.9640  -16.2940  -11.9690 Br      1  MOL1       -0.0510
      7 C33        17.2500  -17.2520   -9.8630 C.ar    1  MOL1       -0.0430
      8  C6        15.5410  -17.9200   -8.1020 C.3     1  MOL1        0.0630
      9  C5        15.5610  -18.6310   -6.7370 C.3     1  MOL1        0.0510
     10  C1        15.5140  -15.2630   -4.7800 C.3     1  MOL1        0.0060
     11  N2        15.5810  -16.2410   -5.8560 N.am    1  MOL1       -0.3590
     12  C3        15.4990  -17.6480   -5.6030 C.2     1  MOL1        0.2220
     13  O4        15.3700  -18.0720   -4.4220 O.2     1  MOL1       -0.2750
     14  N7        14.4610  -18.4470   -8.9430 N.am    1  MOL1       -0.3460
     15  C8        13.1190  -17.9600   -8.8650 C.2     1  MOL1        0.2580
     16  O9        12.8200  -17.0510   -8.0460 O.2     1  MOL1       -0.2710
     17 C10        12.0580  -18.5150   -9.7670 C.3     1  MOL1        0.1670
     18 O11        10.9310  -18.9440   -9.0060 O.3     1  MOL1       -0.4800
     19 C12        10.1270  -20.0140   -9.4100 C.ar    1  MOL1        0.1660
     20 C13         9.0140  -19.8120  -10.2570 C.ar    1  MOL1        0.0120
     21 C21         8.2810  -20.9240  -10.7030 C.ar    1  MOL1       -0.0540
     22 C22         8.6160  -22.2100  -10.2760 C.ar    1  MOL1       -0.0580
     23 C23         9.6840  -22.4020   -9.4000 C.ar    1  MOL1       -0.0160
     24 C24        10.4450  -21.3040   -8.9560 C.ar    1  MOL1        0.1610
     25 C14         8.5880  -18.4290  -10.6980 C.3     1  MOL1        0.0280
     26 N15         7.3420  -18.0300  -10.0120 N.3     1  MOL1       -0.2870
     27 C16         7.2690  -16.5710   -9.8260 C.3     1  MOL1        0.0640
     28 C17         7.3540  -16.6850   -8.3160 C.3     1  MOL1        0.2720
     29 F18         6.1980  -16.2940   -7.6640 F       1  MOL1       -0.2040
     30 F19         8.5120  -16.1450   -7.7800 F       1  MOL1       -0.2040
     31 C20         7.4400  -18.1810   -8.5500 C.3     1  MOL1        0.0640
     32 O25        11.5260  -21.4540   -8.0740 O.3     1  MOL1       -0.4930
     33 C26        12.2840  -22.6500   -7.9260 C.3     1  MOL1        0.0780
@<TRIPOS>BOND
     1     6     5    1
     2    21    22   ar
     3    21    20   ar
     4    25    20    1
     5    25    26    1
     6     5     4   ar
     7     5     7   ar
     8    22    23   ar
     9    20    19   ar
    10     4     3   ar
    11    26    27    1
    12    26    31    1
    13     7     1   ar
    14    27    28    1
    15    17    18    1
    16    17    15    1
    17    19    18    1
    18    19    24   ar
    19    23    24   ar
    20     3     2   ar
    21    24    32    1
    22    14    15   am
    23    14     8    1
    24    15    16    2
    25     1     2   ar
    26     1     8    1
    27    31    28    1
    28    28    30    1
    29    28    29    1
    30     8     9    1
    31    32    33    1
    32     9    12    1
    33    11    12   am
    34    11    10    1
    35    12    13    2
