@<TRIPOS>MOLECULE
L3024_0_out.pdbqt
 33 35 0 0 0
SMALL
GASTEIGER

@<TRIPOS>ATOM
      1 C27        15.2020  -18.0390   -7.0160 C.ar    1  MOL1       -0.0240
      2 C28        14.5150  -18.7290   -6.0000 C.ar    1  MOL1       -0.0570
      3 C29        15.1640  -19.7180   -5.2530 C.ar    1  MOL1       -0.0610
      4 C30        16.5020  -20.0290   -5.5130 C.ar    1  MOL1       -0.0480
      5 C31        17.1970  -19.3480   -6.5190 C.ar    1  MOL1        0.0180
      6 Br32       19.0340  -19.7590   -6.8590 Br      1  MOL1       -0.0510
      7 C33        16.5500  -18.3620   -7.2710 C.ar    1  MOL1       -0.0430
      8  C6        14.4720  -17.0220   -7.8670 C.3     1  MOL1        0.0630
      9  C5        15.0840  -15.6250   -7.6590 C.3     1  MOL1        0.0510
     10  C1        15.1600  -14.7770   -3.8580 C.3     1  MOL1        0.0060
     11  N2        15.4960  -15.3270   -5.1640 N.am    1  MOL1       -0.3590
     12  C3        14.7050  -15.0510   -6.3250 C.2     1  MOL1        0.2220
     13  O4        13.6820  -14.3190   -6.2330 O.2     1  MOL1       -0.2750
     14  N7        13.0430  -17.0150   -7.5370 N.am    1  MOL1       -0.3460
     15  C8        12.0370  -17.4190   -8.4680 C.2     1  MOL1        0.2580
     16  O9        12.3570  -17.7920   -9.6270 O.2     1  MOL1       -0.2710
     17 C10        10.5910  -17.4170   -8.0700 C.3     1  MOL1        0.1670
     18 O11         9.7760  -17.8730   -9.1470 O.3     1  MOL1       -0.4800
     19 C12         8.7320  -18.7810   -8.9540 C.ar    1  MOL1        0.1660
     20 C13         8.9780  -20.1710   -8.8670 C.ar    1  MOL1        0.0120
     21 C21         7.9090  -21.0400   -8.5930 C.ar    1  MOL1       -0.0540
     22 C22         6.6110  -20.5460   -8.4560 C.ar    1  MOL1       -0.0580
     23 C23         6.3630  -19.1800   -8.5930 C.ar    1  MOL1       -0.0160
     24 C24         7.4210  -18.2870   -8.8470 C.ar    1  MOL1        0.1610
     25 C14        10.3620  -20.7480   -9.0620 C.3     1  MOL1        0.0280
     26 N15        10.7700  -21.5230   -7.8720 N.3     1  MOL1       -0.2870
     27 C16        11.7600  -20.7920   -7.0630 C.3     1  MOL1        0.0640
     28 C17        12.8520  -21.8030   -7.3520 C.3     1  MOL1        0.2720
     29 F18        13.2560  -22.5190   -6.2390 F       1  MOL1       -0.2040
     30 F19        13.8990  -21.2930   -8.1020 F       1  MOL1       -0.2040
     31 C20        11.8080  -22.5190   -8.1860 C.3     1  MOL1        0.0640
     32 O25         7.2140  -16.9080   -8.9920 O.3     1  MOL1       -0.4930
     33 C26         7.3010  -16.2060  -10.2280 C.3     1  MOL1        0.0780
@<TRIPOS>BOND
     1    33    32    1
     2    16    15    2
     3    18    19    1
     4    18    17    1
     5    25    20    1
     6    25    26    1
     7    32    24    1
     8    19    20   ar
     9    19    24   ar
    10    20    21   ar
    11    24    23   ar
    12    23    22   ar
    13    21    22   ar
    14    15    17    1
    15    15    14   am
    16    31    26    1
    17    31    28    1
    18    30    28    1
    19    26    27    1
    20     8     9    1
    21     8    14    1
    22     8     1    1
    23     9    12    1
    24    28    27    1
    25    28    29    1
    26     7     1   ar
    27     7     5   ar
    28     1     2   ar
    29     6     5    1
    30     5     4   ar
    31    12    13    2
    32    12    11   am
    33     2     3   ar
    34     4     3   ar
    35    11    10    1
