@<TRIPOS>MOLECULE
L3024_0_out.pdbqt
 33 35 0 0 0
SMALL
GASTEIGER

@<TRIPOS>ATOM
      1 C27         6.7660  -19.2630   -8.8340 C.ar    1  MOL1       -0.0240
      2 C28         7.9050  -18.5710   -9.2840 C.ar    1  MOL1       -0.0570
      3 C29         8.0700  -17.2130   -8.9900 C.ar    1  MOL1       -0.0610
      4 C30         7.1010  -16.5340   -8.2460 C.ar    1  MOL1       -0.0480
      5 C31         5.9650  -17.2110   -7.7890 C.ar    1  MOL1        0.0180
      6 Br32        4.6510  -16.2860   -6.7520 Br      1  MOL1       -0.0510
      7 C33         5.7950  -18.5680   -8.0860 C.ar    1  MOL1       -0.0430
      8  C6         6.5600  -20.7120   -9.2180 C.3     1  MOL1        0.0630
      9  C5         7.5610  -21.1140  -10.3160 C.3     1  MOL1        0.0510
     10  C1         9.6400  -24.2980   -9.4710 C.3     1  MOL1        0.0060
     11  N2         8.5980  -23.4160   -9.9750 N.am    1  MOL1       -0.3590
     12  C3         8.6460  -21.9990   -9.7750 C.2     1  MOL1        0.2220
     13  O4         9.6080  -21.4830   -9.1420 O.2     1  MOL1       -0.2750
     14  N7         5.1820  -20.9270   -9.6720 N.am    1  MOL1       -0.3460
     15  C8         4.7370  -22.1690  -10.2210 C.2     1  MOL1        0.2580
     16  O9         5.5390  -23.1330  -10.3410 O.2     1  MOL1       -0.2710
     17 C10         3.3100  -22.3430  -10.6450 C.3     1  MOL1        0.1670
     18 O11         2.5010  -22.7210   -9.5340 O.3     1  MOL1       -0.4800
     19 C12         1.4370  -21.9320   -9.0890 C.ar    1  MOL1        0.1660
     20 C13         0.1580  -22.0270   -9.6830 C.ar    1  MOL1        0.0120
     21 C21        -0.9020  -21.2720   -9.1520 C.ar    1  MOL1       -0.0540
     22 C22        -0.6860  -20.4030   -8.0830 C.ar    1  MOL1       -0.0580
     23 C23         0.5880  -20.2730   -7.5310 C.ar    1  MOL1       -0.0160
     24 C24         1.6610  -21.0330   -8.0330 C.ar    1  MOL1        0.1610
     25 C14        -0.1020  -22.9180  -10.8770 C.3     1  MOL1        0.0280
     26 N15        -1.5010  -22.7780  -11.3300 N.3     1  MOL1       -0.2870
     27 C16        -1.8890  -23.8730  -12.2370 C.3     1  MOL1        0.0640
     28 C17        -2.0430  -22.9370  -13.4190 C.3     1  MOL1        0.2720
     29 F18        -3.3480  -22.8160  -13.8650 F       1  MOL1       -0.2040
     30 F19        -1.1230  -23.1600  -14.4310 F       1  MOL1       -0.2040
     31 C20        -1.6280  -21.8400  -12.4590 C.3     1  MOL1        0.0640
     32 O25         2.9570  -20.9320   -7.5070 O.3     1  MOL1       -0.4930
     33 C26         3.5900  -21.9380   -6.7230 C.3     1  MOL1        0.0780
@<TRIPOS>BOND
     1    30    28    1
     2    29    28    1
     3    28    31    1
     4    28    27    1
     5    31    26    1
     6    27    26    1
     7    26    25    1
     8    25    20    1
     9    17    15    1
    10    17    18    1
    11    16    15    2
    12     9    12    1
    13     9     8    1
    14    15    14   am
    15    11    12   am
    16    11    10    1
    17    12    13    2
    18    20    21   ar
    19    20    19   ar
    20    14     8    1
    21    18    19    1
    22     2     3   ar
    23     2     1   ar
    24     8     1    1
    25    21    22   ar
    26    19    24   ar
    27     3     4   ar
    28     1     7   ar
    29     4     5   ar
    30     7     5   ar
    31    22    23   ar
    32    24    23   ar
    33    24    32    1
    34     5     6    1
    35    32    33    1
