@<TRIPOS>MOLECULE
L3024_0_out.pdbqt
 33 35 0 0 0
SMALL
GASTEIGER

@<TRIPOS>ATOM
      1 C27         5.6590  -19.0240   -7.9720 C.ar    1  MOL1       -0.0240
      2 C28         4.5470  -18.3790   -7.4000 C.ar    1  MOL1       -0.0570
      3 C29         4.6240  -17.0320   -7.0300 C.ar    1  MOL1       -0.0610
      4 C30         5.8090  -16.3170   -7.2270 C.ar    1  MOL1       -0.0480
      5 C31         6.9210  -16.9460   -7.7980 C.ar    1  MOL1        0.0180
      6 Br32        8.5350  -15.9610   -8.0870 Br      1  MOL1       -0.0510
      7 C33         6.8490  -18.2940   -8.1640 C.ar    1  MOL1       -0.0430
      8  C6         5.5910  -20.5000   -8.3030 C.3     1  MOL1        0.0630
      9  C5         4.6620  -21.2200   -7.3080 C.3     1  MOL1        0.0510
     10  C1         2.2030  -22.3090  -10.1260 C.3     1  MOL1        0.0060
     11  N2         3.3210  -21.7020   -9.4200 N.am    1  MOL1       -0.3590
     12  C3         3.4920  -21.8510   -8.0060 C.2     1  MOL1        0.2220
     13  O4         2.6580  -22.5180   -7.3360 O.2     1  MOL1       -0.2750
     14  N7         6.9330  -21.0890   -8.2750 N.am    1  MOL1       -0.3460
     15  C8         7.4320  -21.9160   -9.3290 C.2     1  MOL1        0.2580
     16  O9         6.7110  -22.1740  -10.3290 O.2     1  MOL1       -0.2710
     17 C10         8.8230  -22.4720   -9.2630 C.3     1  MOL1        0.1670
     18 O11         9.7130  -21.6860  -10.0520 O.3     1  MOL1       -0.4800
     19 C12        10.3920  -20.5830   -9.5270 C.ar    1  MOL1        0.1660
     20 C13        10.2300  -19.2930  -10.0810 C.ar    1  MOL1        0.0120
     21 C21        10.8700  -18.2000   -9.4730 C.ar    1  MOL1       -0.0540
     22 C22        11.6950  -18.3900   -8.3640 C.ar    1  MOL1       -0.0580
     23 C23        11.8940  -19.6720   -7.8490 C.ar    1  MOL1       -0.0160
     24 C24        11.2470  -20.7790   -8.4300 C.ar    1  MOL1        0.1610
     25 C14         9.3870  -19.0550  -11.3140 C.3     1  MOL1        0.0280
     26 N15         8.0920  -18.4490  -10.9440 N.3     1  MOL1       -0.2870
     27 C16         7.0470  -18.7550  -11.9360 C.3     1  MOL1        0.0640
     28 C17         6.9220  -17.3060  -12.3610 C.3     1  MOL1        0.2720
     29 F18         5.7040  -16.7350  -12.0370 F       1  MOL1       -0.2040
     30 F19         7.3230  -17.0710  -13.6660 F       1  MOL1       -0.2040
     31 C20         8.0080  -17.0320  -11.3390 C.3     1  MOL1        0.0640
     32 O25        11.4200  -22.0830   -7.9430 O.3     1  MOL1       -0.4930
     33 C26        12.3020  -22.4360   -6.8830 C.3     1  MOL1        0.0780
@<TRIPOS>BOND
     1    30    28    1
     2    28    29    1
     3    28    27    1
     4    28    31    1
     5    27    26    1
     6    31    26    1
     7    25    26    1
     8    25    20    1
     9    16    15    2
    10    10    11    1
    11    20    19   ar
    12    20    21   ar
    13    18    19    1
    14    18    17    1
    15    19    24   ar
    16    21    22   ar
    17    11    12   am
    18    15    17    1
    19    15    14   am
    20    24    32    1
    21    24    23   ar
    22    22    23   ar
    23     8    14    1
    24     8     1    1
    25     8     9    1
    26     7     1   ar
    27     7     5   ar
    28     6     5    1
    29    12    13    2
    30    12     9    1
    31     1     2   ar
    32    32    33    1
    33     5     4   ar
    34     2     3   ar
    35     4     3   ar
