@<TRIPOS>MOLECULE
L3024_0_out.pdbqt
 33 35 0 0 0
SMALL
GASTEIGER

@<TRIPOS>ATOM
      1 C27         5.8190  -19.3180   -8.3180 C.ar    1  MOL1       -0.0240
      2 C28         4.7680  -18.7690   -7.5610 C.ar    1  MOL1       -0.0570
      3 C29         4.8240  -17.4380   -7.1330 C.ar    1  MOL1       -0.0610
      4 C30         5.9280  -16.6440   -7.4550 C.ar    1  MOL1       -0.0480
      5 C31         6.9790  -17.1770   -8.2100 C.ar    1  MOL1        0.0180
      6 Br32        8.4800  -16.0830   -8.6690 Br      1  MOL1       -0.0510
      7 C33         6.9290  -18.5080   -8.6350 C.ar    1  MOL1       -0.0430
      8  C6         5.7840  -20.7780   -8.7150 C.3     1  MOL1        0.0630
      9  C5         5.0250  -21.5950   -7.6540 C.3     1  MOL1        0.0510
     10  C1         1.2620  -22.5980   -7.5510 C.3     1  MOL1        0.0060
     11  N2         2.6270  -22.2920   -7.1490 N.am    1  MOL1       -0.3590
     12  C3         3.6270  -21.9150   -8.1020 C.2     1  MOL1        0.2220
     13  O4         3.3390  -21.8450   -9.3280 O.2     1  MOL1       -0.2750
     14  N7         7.1470  -21.2920   -8.8840 N.am    1  MOL1       -0.3460
     15  C8         7.6450  -21.7550  -10.1410 C.2     1  MOL1        0.2580
     16  O9         6.9040  -21.7440  -11.1600 O.2     1  MOL1       -0.2710
     17 C10         9.0560  -22.2460  -10.2640 C.3     1  MOL1        0.1670
     18 O11         9.4770  -22.8630   -9.0500 O.3     1  MOL1       -0.4800
     19 C12        10.8250  -23.0970   -8.7660 C.ar    1  MOL1        0.1660
     20 C13        11.6440  -22.0820   -8.2190 C.ar    1  MOL1        0.0120
     21 C21        12.9720  -22.3840   -7.8760 C.ar    1  MOL1       -0.0540
     22 C22        13.4940  -23.6550   -8.1150 C.ar    1  MOL1       -0.0580
     23 C23        12.6990  -24.6410   -8.7010 C.ar    1  MOL1       -0.0160
     24 C24        11.3600  -24.3670   -9.0360 C.ar    1  MOL1        0.1610
     25 C14        11.1290  -20.6780   -7.9950 C.3     1  MOL1        0.0280
     26 N15        12.0790  -19.6870   -8.5390 N.3     1  MOL1       -0.2870
     27 C16        12.7340  -18.9180   -7.4670 C.3     1  MOL1        0.0640
     28 C17        12.0710  -17.6220   -7.8910 C.3     1  MOL1        0.2720
     29 F18        12.9560  -16.6800   -8.3830 F       1  MOL1       -0.2040
     30 F19        11.1800  -17.1210   -6.9560 F       1  MOL1       -0.2040
     31 C20        11.4060  -18.4500   -8.9730 C.3     1  MOL1        0.0640
     32 O25        10.5280  -25.3290   -9.6270 O.3     1  MOL1       -0.4930
     33 C26        10.7660  -25.9300  -10.8960 C.3     1  MOL1        0.0780
@<TRIPOS>BOND
     1    16    15    2
     2    33    32    1
     3    17    15    1
     4    17    18    1
     5    15    14   am
     6    32    24    1
     7    13    12    2
     8    18    19    1
     9    24    19   ar
    10    24    23   ar
    11    31    26    1
    12    31    28    1
    13    14     8    1
    14    19    20   ar
    15     8     1    1
    16     8     9    1
    17    23    22   ar
    18     6     5    1
    19     7     1   ar
    20     7     5   ar
    21    26    25    1
    22    26    27    1
    23    29    28    1
    24     1     2   ar
    25    20    25    1
    26    20    21   ar
    27     5     4   ar
    28    22    21   ar
    29    12     9    1
    30    12    11   am
    31    28    27    1
    32    28    30    1
    33     2     3   ar
    34    10    11    1
    35     4     3   ar
