@<TRIPOS>MOLECULE
L3024_0_out.pdbqt
 33 35 0 0 0
SMALL
GASTEIGER

@<TRIPOS>ATOM
      1 C27        14.2030  -16.9590   -6.4360 C.ar    1  MOL1       -0.0240
      2 C28        13.2180  -15.9810   -6.6660 C.ar    1  MOL1       -0.0570
      3 C29        13.0920  -14.8890   -5.8010 C.ar    1  MOL1       -0.0610
      4 C30        13.9450  -14.7620   -4.7020 C.ar    1  MOL1       -0.0480
      5 C31        14.9310  -15.7260   -4.4640 C.ar    1  MOL1        0.0180
      6 Br32       16.1120  -15.5390   -2.9710 Br      1  MOL1       -0.0510
      7 C33        15.0570  -16.8220   -5.3230 C.ar    1  MOL1       -0.0430
      8  C6        14.2870  -18.1750   -7.3340 C.3     1  MOL1        0.0630
      9  C5        14.8980  -17.7870   -8.6920 C.3     1  MOL1        0.0510
     10  C1        18.0260  -19.3630  -10.3960 C.3     1  MOL1        0.0060
     11  N2        16.7100  -18.7790  -10.1820 N.am    1  MOL1       -0.3590
     12  C3        16.2570  -18.3960   -8.8790 C.2     1  MOL1        0.2220
     13  O4        17.0020  -18.5660   -7.8750 O.2     1  MOL1       -0.2750
     14  N7        12.9560  -18.7640   -7.5160 N.am    1  MOL1       -0.3460
     15  C8        12.6000  -20.0410   -6.9800 C.2     1  MOL1        0.2580
     16  O9        13.4430  -20.7140   -6.3300 O.2     1  MOL1       -0.2710
     17 C10        11.2160  -20.5850   -7.1730 C.3     1  MOL1        0.1670
     18 O11        10.9360  -20.7540   -8.5610 O.3     1  MOL1       -0.4800
     19 C12         9.8150  -21.4560   -9.0110 C.ar    1  MOL1        0.1660
     20 C13         8.5710  -20.8100   -9.1920 C.ar    1  MOL1        0.0120
     21 C21         7.4910  -21.5370   -9.7210 C.ar    1  MOL1       -0.0540
     22 C22         7.6290  -22.8920  -10.0190 C.ar    1  MOL1       -0.0580
     23 C23         8.8430  -23.5410   -9.7920 C.ar    1  MOL1       -0.0160
     24 C24         9.9450  -22.8280   -9.2820 C.ar    1  MOL1        0.1610
     25 C14         8.3690  -19.3550   -8.8300 C.3     1  MOL1        0.0280
     26 N15         7.4560  -18.7060   -9.7920 N.3     1  MOL1       -0.2870
     27 C16         8.1730  -17.7640  -10.6690 C.3     1  MOL1        0.0640
     28 C17         7.4510  -16.5630  -10.0910 C.3     1  MOL1        0.2720
     29 F18         6.6090  -15.9350  -10.9930 F       1  MOL1       -0.2040
     30 F19         8.2790  -15.6950   -9.3980 F       1  MOL1       -0.2040
     31 C20         6.7430  -17.5620   -9.1980 C.3     1  MOL1        0.0640
     32 O25        11.1820  -23.4430   -9.0390 O.3     1  MOL1       -0.4930
     33 C26        11.5290  -24.7540   -9.4710 C.3     1  MOL1        0.0780
@<TRIPOS>BOND
     1    29    28    1
     2    27    28    1
     3    27    26    1
     4    10    11    1
     5    11    12   am
     6    28    30    1
     7    28    31    1
     8    22    23   ar
     9    22    21   ar
    10    23    24   ar
    11    26    31    1
    12    26    25    1
    13    21    20   ar
    14    33    32    1
    15    24    32    1
    16    24    19   ar
    17    20    19   ar
    18    20    25    1
    19    19    18    1
    20    12     9    1
    21    12    13    2
    22     9     8    1
    23    18    17    1
    24    14     8    1
    25    14    15   am
    26     8     1    1
    27    17    15    1
    28    15    16    2
    29     2     1   ar
    30     2     3   ar
    31     1     7   ar
    32     3     4   ar
    33     7     5   ar
    34     4     5   ar
    35     5     6    1
