@<TRIPOS>MOLECULE
L3024_0_out.pdbqt
 33 35 0 0 0
SMALL
GASTEIGER

@<TRIPOS>ATOM
      1 C27         8.6210  -20.7000   -9.2610 C.ar    1  MOL1       -0.0240
      2 C28         7.4930  -21.2240   -9.9190 C.ar    1  MOL1       -0.0570
      3 C29         7.4710  -22.5620  -10.3280 C.ar    1  MOL1       -0.0610
      4 C30         8.5710  -23.3880  -10.0840 C.ar    1  MOL1       -0.0480
      5 C31         9.6980  -22.8800   -9.4280 C.ar    1  MOL1        0.0180
      6 Br32       11.1950  -24.0180   -9.0760 Br      1  MOL1       -0.0510
      7 C33         9.7260  -21.5420   -9.0220 C.ar    1  MOL1       -0.0430
      8  C6         8.6660  -19.2340   -8.8870 C.3     1  MOL1        0.0630
      9  C5         7.4680  -18.4940   -9.5090 C.3     1  MOL1        0.0510
     10  C1         5.3890  -16.3180   -7.0360 C.3     1  MOL1        0.0060
     11  N2         6.3590  -16.7350   -8.0380 N.am    1  MOL1       -0.3590
     12  C3         6.4640  -18.0970   -8.4650 C.2     1  MOL1        0.2220
     13  O4         5.7080  -18.9760   -7.9680 O.2     1  MOL1       -0.2750
     14  N7         9.9300  -18.6360   -9.3300 N.am    1  MOL1       -0.3460
     15  C8        10.8550  -18.0310   -8.4230 C.2     1  MOL1        0.2580
     16  O9        10.5980  -17.9870   -7.1900 O.2     1  MOL1       -0.2710
     17 C10        12.1450  -17.4570   -8.9260 C.3     1  MOL1        0.1670
     18 O11        13.1330  -17.4740   -7.8980 O.3     1  MOL1       -0.4800
     19 C12        14.4350  -17.0160   -8.1150 C.ar    1  MOL1        0.1660
     20 C13        15.4230  -17.8590   -8.6750 C.ar    1  MOL1        0.0120
     21 C21        16.6970  -17.3340   -8.9480 C.ar    1  MOL1       -0.0540
     22 C22        17.0010  -16.0110   -8.6270 C.ar    1  MOL1       -0.0580
     23 C23        16.0410  -15.1960   -8.0280 C.ar    1  MOL1       -0.0160
     24 C24        14.7510  -15.6940   -7.7630 C.ar    1  MOL1        0.1610
     25 C14        15.1460  -19.3130   -8.9870 C.3     1  MOL1        0.0280
     26 N15        14.8330  -20.0560   -7.7490 N.3     1  MOL1       -0.2870
     27 C16        16.0560  -20.4480   -7.0290 C.3     1  MOL1        0.0640
     28 C17        15.8080  -21.9250   -7.2640 C.3     1  MOL1        0.2720
     29 F18        15.5340  -22.6340   -6.1070 F       1  MOL1       -0.2040
     30 F19        16.7520  -22.5270   -8.0800 F       1  MOL1       -0.2040
     31 C20        14.5640  -21.4800   -8.0080 C.3     1  MOL1        0.0640
     32 O25        13.7580  -14.9080   -7.1620 O.3     1  MOL1       -0.4930
     33 C26        13.1480  -15.2000   -5.9090 C.3     1  MOL1        0.0780
@<TRIPOS>BOND
     1     3     4   ar
     2     3     2   ar
     3     4     5   ar
     4     2     1   ar
     5     9     8    1
     6     9    12    1
     7     5     6    1
     8     5     7   ar
     9    14     8    1
    10    14    15   am
    11     1     7   ar
    12     1     8    1
    13    25    20    1
    14    25    26    1
    15    21    20   ar
    16    21    22   ar
    17    17    15    1
    18    17    18    1
    19    20    19   ar
    20    22    23   ar
    21    12    11   am
    22    12    13    2
    23    15    16    2
    24    19    18    1
    25    19    24   ar
    26    30    28    1
    27    11    10    1
    28    23    24   ar
    29    31    26    1
    30    31    28    1
    31    24    32    1
    32    26    27    1
    33    28    27    1
    34    28    29    1
    35    32    33    1
