@<TRIPOS>MOLECULE
L3024_0_out.pdbqt
 33 35 0 0 0
SMALL
GASTEIGER

@<TRIPOS>ATOM
      1 C27         3.7250  -13.4850  -11.5160 C.ar    1  MOL1       -0.0240
      2 C28         4.6660  -13.4480  -12.5610 C.ar    1  MOL1       -0.0570
      3 C29         4.5890  -12.4600  -13.5480 C.ar    1  MOL1       -0.0610
      4 C30         3.5740  -11.5000  -13.5020 C.ar    1  MOL1       -0.0480
      5 C31         2.6340  -11.5230  -12.4660 C.ar    1  MOL1        0.0180
      6 Br32        1.2580  -10.1960  -12.3910 Br      1  MOL1       -0.0510
      7 C33         2.7040  -12.5130  -11.4800 C.ar    1  MOL1       -0.0430
      8  C6         3.7720  -14.6000  -10.4940 C.3     1  MOL1        0.0630
      9  C5         2.8630  -14.2590   -9.2990 C.3     1  MOL1        0.0510
     10  C1         4.7010  -16.5630   -6.7520 C.3     1  MOL1        0.0060
     11  N2         4.4270  -15.6780   -7.8750 N.am    1  MOL1       -0.3590
     12  C3         3.1110  -15.1790   -8.1390 C.2     1  MOL1        0.2220
     13  O4         2.1490  -15.5070   -7.3920 O.2     1  MOL1       -0.2750
     14  N7         5.1510  -14.8230  -10.0470 N.am    1  MOL1       -0.3460
     15  C8         6.0370  -15.7300  -10.7070 C.2     1  MOL1        0.2580
     16  O9         5.6440  -16.3860  -11.7080 O.2     1  MOL1       -0.2710
     17 C10         7.4460  -15.9000  -10.2240 C.3     1  MOL1        0.1670
     18 O11         7.5410  -17.0200   -9.3480 O.3     1  MOL1       -0.4800
     19 C12         8.5910  -17.9390   -9.4320 C.ar    1  MOL1        0.1660
     20 C13         8.4510  -19.1440  -10.1580 C.ar    1  MOL1        0.0120
     21 C21         9.5570  -20.0020  -10.2820 C.ar    1  MOL1       -0.0540
     22 C22        10.7650  -19.6940   -9.6570 C.ar    1  MOL1       -0.0580
     23 C23        10.8860  -18.5290   -8.8990 C.ar    1  MOL1       -0.0160
     24 C24         9.7980  -17.6450   -8.7770 C.ar    1  MOL1        0.1610
     25 C14         7.1410  -19.5370  -10.8050 C.3     1  MOL1        0.0280
     26 N15         6.1640  -19.9540   -9.7790 N.3     1  MOL1       -0.2870
     27 C16         6.8310  -20.3850   -8.5390 C.3     1  MOL1        0.0640
     28 C17         6.3670  -21.8190   -8.7010 C.3     1  MOL1        0.2720
     29 F18         5.4660  -22.2250   -7.7320 F       1  MOL1       -0.2040
     30 F19         7.3980  -22.7180   -8.9210 F       1  MOL1       -0.2040
     31 C20         5.7050  -21.3390   -9.9780 C.3     1  MOL1        0.0640
     32 O25         9.8770  -16.4650   -8.0240 O.3     1  MOL1       -0.4930
     33 C26        10.6900  -16.3010   -6.8670 C.3     1  MOL1        0.0780
@<TRIPOS>BOND
     1     3     4   ar
     2     3     2   ar
     3     4     5   ar
     4     2     1   ar
     5     5     6    1
     6     5     7   ar
     7    16    15    2
     8     1     7   ar
     9     1     8    1
    10    25    20    1
    11    25    26    1
    12    15    17    1
    13    15    14   am
    14     8    14    1
    15     8     9    1
    16    21    20   ar
    17    21    22   ar
    18    17    18    1
    19    20    19   ar
    20    31    26    1
    21    31    28    1
    22    26    27    1
    23    22    23   ar
    24    19    18    1
    25    19    24   ar
    26     9    12    1
    27    30    28    1
    28    23    24   ar
    29    24    32    1
    30    28    27    1
    31    28    29    1
    32    12    11   am
    33    12    13    2
    34    32    33    1
    35    11    10    1
