@<TRIPOS>MOLECULE
L3024_0_out.pdbqt
 33 35 0 0 0
SMALL
GASTEIGER

@<TRIPOS>ATOM
      1 C27         6.5130  -17.4650   -8.8150 C.ar    1  MOL1       -0.0240
      2 C28         5.7710  -17.3440   -7.6260 C.ar    1  MOL1       -0.0570
      3 C29         4.8140  -16.3330   -7.4900 C.ar    1  MOL1       -0.0610
      4 C30         4.5890  -15.4340   -8.5360 C.ar    1  MOL1       -0.0480
      5 C31         5.3180  -15.5450   -9.7250 C.ar    1  MOL1        0.0180
      6 Br32        4.9940  -14.3280  -11.1650 Br      1  MOL1       -0.0510
      7 C33         6.2800  -16.5510   -9.8630 C.ar    1  MOL1       -0.0430
      8  C6         7.5970  -18.5150   -8.9270 C.3     1  MOL1        0.0630
      9  C5         7.1230  -19.8330   -8.2880 C.3     1  MOL1        0.0510
     10  C1         7.0020  -21.9490  -11.5570 C.3     1  MOL1        0.0060
     11  N2         7.4130  -20.9970  -10.5350 N.am    1  MOL1       -0.3590
     12  C3         6.6660  -20.8150   -9.3280 C.2     1  MOL1        0.2220
     13  O4         5.6160  -21.4850   -9.1270 O.2     1  MOL1       -0.2750
     14  N7         8.8290  -18.0440   -8.2860 N.am    1  MOL1       -0.3460
     15  C8        10.1290  -18.3690   -8.7850 C.2     1  MOL1        0.2580
     16  O9        10.2540  -19.0940   -9.8070 O.2     1  MOL1       -0.2710
     17 C10        11.3560  -17.8400   -8.1050 C.3     1  MOL1        0.1670
     18 O11        12.4640  -18.7080   -8.3280 O.3     1  MOL1       -0.4800
     19 C12        13.1640  -19.3030   -7.2750 C.ar    1  MOL1        0.1660
     20 C13        14.2820  -18.6660   -6.6890 C.ar    1  MOL1        0.0120
     21 C21        14.9070  -19.2610   -5.5810 C.ar    1  MOL1       -0.0540
     22 C22        14.4630  -20.4900   -5.0940 C.ar    1  MOL1       -0.0580
     23 C23        13.3910  -21.1410   -5.7050 C.ar    1  MOL1       -0.0160
     24 C24        12.7360  -20.5540   -6.8040 C.ar    1  MOL1        0.1610
     25 C14        14.8250  -17.3590   -7.2240 C.3     1  MOL1        0.0280
     26 N15        15.9280  -16.8710   -6.3700 N.3     1  MOL1       -0.2870
     27 C16        15.7560  -15.4490   -6.0240 C.3     1  MOL1        0.0640
     28 C17        16.9840  -15.0340   -6.8100 C.3     1  MOL1        0.2720
     29 F18        18.0140  -14.5560   -6.0200 F       1  MOL1       -0.2040
     30 F19        16.7000  -14.2360   -7.9070 F       1  MOL1       -0.2040
     31 C20        17.1190  -16.5050   -7.1550 C.3     1  MOL1        0.0640
     32 O25        11.6570  -21.1760   -7.4470 O.3     1  MOL1       -0.4930
     33 C26        11.7520  -22.3810   -8.1990 C.3     1  MOL1        0.0780
@<TRIPOS>BOND
     1    10    11    1
     2     6     5    1
     3    11    12   am
     4     7     5   ar
     5     7     1   ar
     6    16    15    2
     7     5     4   ar
     8    12    13    2
     9    12     9    1
    10     8     1    1
    11     8     9    1
    12     8    14    1
    13     1     2   ar
    14    15    14   am
    15    15    17    1
    16     4     3   ar
    17    18    17    1
    18    18    19    1
    19    33    32    1
    20    30    28    1
    21     2     3   ar
    22    32    24    1
    23    19    24   ar
    24    19    20   ar
    25    25    20    1
    26    25    26    1
    27    31    28    1
    28    31    26    1
    29    28    27    1
    30    28    29    1
    31    24    23   ar
    32    20    21   ar
    33    26    27    1
    34    23    22   ar
    35    21    22   ar
