@<TRIPOS>MOLECULE
L3024_0_out.pdbqt
 33 35 0 0 0
SMALL
GASTEIGER

@<TRIPOS>ATOM
      1 C27         8.4440  -20.1290   -9.1280 C.ar    1  MOL1       -0.0240
      2 C28         8.7040  -21.3220   -9.8270 C.ar    1  MOL1       -0.0570
      3 C29         7.8290  -22.4090   -9.7210 C.ar    1  MOL1       -0.0610
      4 C30         6.6900  -22.3170   -8.9170 C.ar    1  MOL1       -0.0480
      5 C31         6.4180  -21.1350   -8.2190 C.ar    1  MOL1        0.0180
      6 Br32        4.8470  -21.0020   -7.1360 Br      1  MOL1       -0.0510
      7 C33         7.2930  -20.0480   -8.3180 C.ar    1  MOL1       -0.0430
      8  C6         9.4320  -18.9850   -9.1900 C.3     1  MOL1        0.0630
      9  C5         9.4800  -18.4070  -10.6170 C.3     1  MOL1        0.0510
     10  C1         6.4310  -15.9830  -10.6190 C.3     1  MOL1        0.0060
     11  N2         7.6860  -16.6320  -10.2700 N.am    1  MOL1       -0.3590
     12  C3         8.1760  -17.7660  -10.9950 C.2     1  MOL1        0.2220
     13  O4         7.5140  -18.2330  -11.9620 O.2     1  MOL1       -0.2750
     14  N7        10.7630  -19.4380   -8.7720 N.am    1  MOL1       -0.3460
     15  C8        11.6770  -18.5950   -8.0690 C.2     1  MOL1        0.2580
     16  O9        11.3610  -17.4070   -7.7920 O.2     1  MOL1       -0.2710
     17 C10        13.0160  -19.1170   -7.6420 C.3     1  MOL1        0.1670
     18 O11        13.7520  -18.1050   -6.9590 O.3     1  MOL1       -0.4800
     19 C12        14.8170  -17.4290   -7.5620 C.ar    1  MOL1        0.1660
     20 C13        15.0000  -16.0400   -7.3760 C.ar    1  MOL1        0.0120
     21 C21        16.1280  -15.4170   -7.9350 C.ar    1  MOL1       -0.0540
     22 C22        17.0320  -16.1480   -8.7050 C.ar    1  MOL1       -0.0580
     23 C23        16.8230  -17.5090   -8.9290 C.ar    1  MOL1       -0.0160
     24 C24        15.7110  -18.1590   -8.3630 C.ar    1  MOL1        0.1610
     25 C14        14.0130  -15.2040   -6.5920 C.3     1  MOL1        0.0280
     26 N15        13.9820  -15.6320   -5.1790 N.3     1  MOL1       -0.2870
     27 C16        12.9670  -14.8920   -4.4100 C.3     1  MOL1        0.0640
     28 C17        14.0120  -14.2040   -3.5530 C.3     1  MOL1        0.2720
     29 F18        13.9770  -14.5840   -2.2230 F       1  MOL1       -0.2040
     30 F19        14.0760  -12.8340   -3.7440 F       1  MOL1       -0.2040
     31 C20        15.0270  -14.9750   -4.3760 C.3     1  MOL1        0.0640
     32 O25        15.4630  -19.5250   -8.5640 O.3     1  MOL1       -0.4930
     33 C26        16.4290  -20.4570   -9.0380 C.3     1  MOL1        0.0780
@<TRIPOS>BOND
     1    13    12    2
     2    12     9    1
     3    12    11   am
     4    10    11    1
     5     9     8    1
     6     2     3   ar
     7     2     1   ar
     8     3     4   ar
     9     8     1    1
    10     8    14    1
    11     1     7   ar
    12    33    32    1
    13    23    22   ar
    14    23    24   ar
    15     4     5   ar
    16    14    15   am
    17    22    21   ar
    18    32    24    1
    19    24    19   ar
    20     7     5   ar
    21     5     6    1
    22    15    16    2
    23    15    17    1
    24    21    20   ar
    25    17    18    1
    26    19    20   ar
    27    19    18    1
    28    20    25    1
    29    25    26    1
    30    26    27    1
    31    26    31    1
    32    27    28    1
    33    31    28    1
    34    30    28    1
    35    28    29    1
