@<TRIPOS>MOLECULE
L3024_0_out.pdbqt
 33 35 0 0 0
SMALL
GASTEIGER

@<TRIPOS>ATOM
      1 C27        14.9640  -15.6520   -2.5900 C.ar    1  MOL1       -0.0240
      2 C28        14.9440  -14.3000   -2.2010 C.ar    1  MOL1       -0.0570
      3 C29        14.6270  -13.9460   -0.8850 C.ar    1  MOL1       -0.0610
      4 C30        14.3260  -14.9370    0.0540 C.ar    1  MOL1       -0.0480
      5 C31        14.3460  -16.2850   -0.3190 C.ar    1  MOL1        0.0180
      6 Br32       13.9560  -17.6420    0.9730 Br      1  MOL1       -0.0510
      7 C33        14.6580  -16.6420   -1.6350 C.ar    1  MOL1       -0.0430
      8  C6        15.2370  -16.0220   -4.0320 C.3     1  MOL1        0.0630
      9  C5        14.1220  -15.4700   -4.9380 C.3     1  MOL1        0.0510
     10  C1        16.5980  -14.7570   -7.8600 C.3     1  MOL1        0.0060
     11  N2        16.0420  -15.2010   -6.5890 N.am    1  MOL1       -0.3590
     12  C3        14.6670  -14.9910   -6.2520 C.2     1  MOL1        0.2220
     13  O4        13.9000  -14.4030   -7.0630 O.2     1  MOL1       -0.2750
     14  N7        15.3430  -17.4780   -4.1720 N.am    1  MOL1       -0.3460
     15  C8        16.5800  -18.1350   -4.4540 C.2     1  MOL1        0.2580
     16  O9        17.6360  -17.4650   -4.6030 O.2     1  MOL1       -0.2710
     17 C10        16.6380  -19.6300   -4.5610 C.3     1  MOL1        0.1670
     18 O11        16.0290  -20.0670   -5.7740 O.3     1  MOL1       -0.4800
     19 C12        16.3060  -19.4610   -7.0020 C.ar    1  MOL1        0.1660
     20 C13        15.3100  -18.7470   -7.7070 C.ar    1  MOL1        0.0120
     21 C21        15.6530  -18.0880   -8.8990 C.ar    1  MOL1       -0.0540
     22 C22        16.9490  -18.1750   -9.4090 C.ar    1  MOL1       -0.0580
     23 C23        17.9170  -18.9220   -8.7380 C.ar    1  MOL1       -0.0160
     24 C24        17.6020  -19.5750   -7.5320 C.ar    1  MOL1        0.1610
     25 C14        13.8820  -18.6750   -7.2130 C.3     1  MOL1        0.0280
     26 N15        13.0400  -17.9360   -8.1760 N.3     1  MOL1       -0.2870
     27 C16        11.9430  -17.2230   -7.5000 C.3     1  MOL1        0.0640
     28 C17        10.8820  -18.0870   -8.1530 C.3     1  MOL1        0.2720
     29 F18        10.0740  -17.3990   -9.0410 F       1  MOL1       -0.2040
     30 F19        10.1830  -18.8810   -7.2590 F       1  MOL1       -0.2040
     31 C20        12.0390  -18.8050   -8.8190 C.3     1  MOL1        0.0640
     32 O25        18.5460  -20.3360   -6.8280 O.3     1  MOL1       -0.4930
     33 C26        19.3040  -21.4020   -7.3910 C.3     1  MOL1        0.0780
@<TRIPOS>BOND
     1    22    21   ar
     2    22    23   ar
     3    29    28    1
     4    21    20   ar
     5    31    26    1
     6    31    28    1
     7    23    24   ar
     8    26    27    1
     9    26    25    1
    10    28    27    1
    11    28    30    1
    12    10    11    1
    13    20    25    1
    14    20    19   ar
    15    24    19   ar
    16    24    32    1
    17    33    32    1
    18    13    12    2
    19    19    18    1
    20    11    12   am
    21    12     9    1
    22    18    17    1
    23     9     8    1
    24    16    15    2
    25    17    15    1
    26    15    14   am
    27    14     8    1
    28     8     1    1
    29     1     2   ar
    30     1     7   ar
    31     2     3   ar
    32     7     5   ar
    33     3     4   ar
    34     5     4   ar
    35     5     6    1
