@<TRIPOS>MOLECULE
L3024_0_out.pdbqt
 33 35 0 0 0
SMALL
GASTEIGER

@<TRIPOS>ATOM
      1 C27        18.2210  -17.9550  -11.1760 C.ar    1  MOL1       -0.0240
      2 C28        18.7690  -16.6600  -11.1790 C.ar    1  MOL1       -0.0570
      3 C29        18.7350  -15.8790  -12.3400 C.ar    1  MOL1       -0.0610
      4 C30        18.1550  -16.3840  -13.5070 C.ar    1  MOL1       -0.0480
      5 C31        17.6030  -17.6700  -13.5170 C.ar    1  MOL1        0.0180
      6 Br32       16.7900  -18.3510  -15.1090 Br      1  MOL1       -0.0510
      7 C33        17.6400  -18.4550  -12.3590 C.ar    1  MOL1       -0.0430
      8  C6        18.3270  -18.8190   -9.9380 C.3     1  MOL1        0.0630
      9  C5        18.1950  -20.3050  -10.3190 C.3     1  MOL1        0.0510
     10  C1        18.9940  -22.8670   -7.4960 C.3     1  MOL1        0.0060
     11  N2        18.2780  -21.9960   -8.4160 N.am    1  MOL1       -0.3590
     12  C3        18.9640  -21.1850   -9.3760 C.2     1  MOL1        0.2220
     13  O4        20.2230  -21.2080   -9.4390 O.2     1  MOL1       -0.2750
     14  N7        17.2950  -18.4430   -8.9660 N.am    1  MOL1       -0.3460
     15  C8        17.5640  -18.3230   -7.5670 C.2     1  MOL1        0.2580
     16  O9        18.7190  -18.5520   -7.1200 O.2     1  MOL1       -0.2710
     17 C10        16.4780  -17.9090   -6.6190 C.3     1  MOL1        0.1670
     18 O11        16.2580  -16.5020   -6.6960 O.3     1  MOL1       -0.4800
     19 C12        15.3140  -15.8540   -5.8960 C.ar    1  MOL1        0.1660
     20 C13        13.9580  -15.7670   -6.2890 C.ar    1  MOL1        0.0120
     21 C21        13.0280  -15.1770   -5.4180 C.ar    1  MOL1       -0.0540
     22 C22        13.4420  -14.6400   -4.1990 C.ar    1  MOL1       -0.0580
     23 C23        14.7880  -14.6820   -3.8350 C.ar    1  MOL1       -0.0160
     24 C24        15.7350  -15.2860   -4.6830 C.ar    1  MOL1        0.1610
     25 C14        13.4820  -16.2910   -7.6260 C.3     1  MOL1        0.0280
     26 N15        12.5870  -17.4510   -7.4360 N.3     1  MOL1       -0.2870
     27 C16        13.1330  -18.6650   -8.0660 C.3     1  MOL1        0.0640
     28 C17        12.0120  -18.7290   -9.0850 C.3     1  MOL1        0.2720
     29 F18        11.1800  -19.8240   -8.9280 F       1  MOL1       -0.2040
     30 F19        12.4320  -18.5250  -10.3890 F       1  MOL1       -0.2040
     31 C20        11.4890  -17.4720   -8.4180 C.3     1  MOL1        0.0640
     32 O25        17.0970  -15.3480   -4.3540 O.3     1  MOL1       -0.4930
     33 C26        17.6730  -16.3210   -3.4890 C.3     1  MOL1        0.0780
@<TRIPOS>BOND
     1     6     5    1
     2     5     4   ar
     3     5     7   ar
     4     4     3   ar
     5     7     1   ar
     6     3     2   ar
     7     2     1   ar
     8     1     8    1
     9    30    28    1
    10     9     8    1
    11     9    12    1
    12     8    14    1
    13    13    12    2
    14    12    11   am
    15    28    29    1
    16    28    31    1
    17    28    27    1
    18    14    15   am
    19    31    26    1
    20    11    10    1
    21    27    26    1
    22    25    26    1
    23    25    20    1
    24    15    16    2
    25    15    17    1
    26    18    17    1
    27    18    19    1
    28    20    19   ar
    29    20    21   ar
    30    19    24   ar
    31    21    22   ar
    32    24    32    1
    33    24    23   ar
    34    32    33    1
    35    22    23   ar
