@<TRIPOS>MOLECULE
L3024_0_out.pdbqt
 33 35 0 0 0
SMALL
GASTEIGER

@<TRIPOS>ATOM
      1 C27         8.1570  -18.1670   -9.2700 C.ar    1  MOL1       -0.0240
      2 C28         8.1000  -17.4840  -10.4990 C.ar    1  MOL1       -0.0570
      3 C29         7.1550  -16.4720  -10.7030 C.ar    1  MOL1       -0.0610
      4 C30         6.2600  -16.1330   -9.6850 C.ar    1  MOL1       -0.0480
      5 C31         6.3070  -16.8020   -8.4570 C.ar    1  MOL1        0.0180
      6 Br32        5.0950  -16.3230   -7.0570 Br      1  MOL1       -0.0510
      7 C33         7.2470  -17.8180   -8.2520 C.ar    1  MOL1       -0.0430
      8  C6         9.1320  -19.3080   -9.0830 C.3     1  MOL1        0.0630
      9  C5         8.4230  -20.5050   -8.4230 C.3     1  MOL1        0.0510
     10  C1         6.9490  -22.2790  -11.5620 C.3     1  MOL1        0.0060
     11  N2         7.8720  -21.6400  -10.6360 N.am    1  MOL1       -0.3590
     12  C3         7.4440  -21.1500   -9.3610 C.2     1  MOL1        0.2220
     13  O4         6.2360  -21.2600   -9.0140 O.2     1  MOL1       -0.2750
     14  N7        10.2740  -18.8730   -8.2720 N.am    1  MOL1       -0.3460
     15  C8        11.5400  -18.5360   -8.8430 C.2     1  MOL1        0.2580
     16  O9        11.7160  -18.6160  -10.0880 O.2     1  MOL1       -0.2710
     17 C10        12.6660  -18.0720   -7.9700 C.3     1  MOL1        0.1670
     18 O11        13.4520  -17.0930   -8.6470 O.3     1  MOL1       -0.4800
     19 C12        14.6970  -16.6800   -8.1670 C.ar    1  MOL1        0.1660
     20 C13        15.8720  -17.4110   -8.4580 C.ar    1  MOL1        0.0120
     21 C21        17.1120  -16.9170   -8.0220 C.ar    1  MOL1       -0.0540
     22 C22        17.1820  -15.7440   -7.2690 C.ar    1  MOL1       -0.0580
     23 C23        16.0170  -15.0520   -6.9400 C.ar    1  MOL1       -0.0160
     24 C24        14.7650  -15.5170   -7.3830 C.ar    1  MOL1        0.1610
     25 C14        15.8300  -18.7140   -9.2260 C.3     1  MOL1        0.0280
     26 N15        16.6350  -19.7440   -8.5380 N.3     1  MOL1       -0.2870
     27 C16        16.7180  -20.9830   -9.3290 C.3     1  MOL1        0.0640
     28 C17        15.9290  -21.7760   -8.3060 C.3     1  MOL1        0.2720
     29 F18        16.6700  -22.7580   -7.6710 F       1  MOL1       -0.2040
     30 F19        14.6980  -22.2120   -8.7680 F       1  MOL1       -0.2040
     31 C20        15.8540  -20.4770   -7.5270 C.3     1  MOL1        0.0640
     32 O25        13.5700  -14.8500   -7.0730 O.3     1  MOL1       -0.4930
     33 C26        12.8230  -15.0490   -5.8780 C.3     1  MOL1        0.0780
@<TRIPOS>BOND
     1    10    11    1
     2     3     2   ar
     3     3     4   ar
     4    11    12   am
     5     2     1   ar
     6    16    15    2
     7     4     5   ar
     8    12    13    2
     9    12     9    1
    10    27    26    1
    11    27    28    1
    12     1     8    1
    13     1     7   ar
    14    25    26    1
    15    25    20    1
    16     8     9    1
    17     8    14    1
    18    15    14   am
    19    15    17    1
    20    30    28    1
    21    18    19    1
    22    18    17    1
    23    26    31    1
    24    20    19   ar
    25    20    21   ar
    26     5     7   ar
    27     5     6    1
    28    28    29    1
    29    28    31    1
    30    19    24   ar
    31    21    22   ar
    32    24    32    1
    33    24    23   ar
    34    22    23   ar
    35    32    33    1
