@<TRIPOS>MOLECULE
L3024_0_out.pdbqt
 33 35 0 0 0
SMALL
GASTEIGER

@<TRIPOS>ATOM
      1 C27         6.2200  -15.9510  -10.3160 C.ar    1  MOL1       -0.0240
      2 C28         6.5520  -16.2050  -11.6590 C.ar    1  MOL1       -0.0570
      3 C29         5.8530  -15.5720  -12.6930 C.ar    1  MOL1       -0.0610
      4 C30         4.8170  -14.6820  -12.3970 C.ar    1  MOL1       -0.0480
      5 C31         4.4780  -14.4190  -11.0650 C.ar    1  MOL1        0.0180
      6 Br32        3.0750  -13.1830  -10.6600 Br      1  MOL1       -0.0510
      7 C33         5.1710  -15.0530  -10.0290 C.ar    1  MOL1       -0.0430
      8  C6         6.9320  -16.6940   -9.2070 C.3     1  MOL1        0.0630
      9  C5         8.3010  -17.1940   -9.7010 C.3     1  MOL1        0.0510
     10  C1        11.6570  -17.5630   -7.7580 C.3     1  MOL1        0.0060
     11  N2        10.6050  -17.7220   -8.7510 N.am    1  MOL1       -0.3590
     12  C3         9.3630  -17.0170   -8.6540 C.2     1  MOL1        0.2220
     13  O4         9.1530  -16.2360   -7.6860 O.2     1  MOL1       -0.2750
     14  N7         6.1110  -17.8160   -8.7380 N.am    1  MOL1       -0.3460
     15  C8         5.2950  -17.7360   -7.5670 C.2     1  MOL1        0.2580
     16  O9         5.2670  -16.6780   -6.8840 O.2     1  MOL1       -0.2710
     17 C10         4.4550  -18.9040   -7.1470 C.3     1  MOL1        0.1670
     18 O11         5.2120  -20.1100   -7.2050 O.3     1  MOL1       -0.4800
     19 C12         5.2510  -20.9070   -8.3520 C.ar    1  MOL1        0.1660
     20 C13         4.0620  -21.3580   -8.9690 C.ar    1  MOL1        0.0120
     21 C21         4.1450  -22.0900  -10.1660 C.ar    1  MOL1       -0.0540
     22 C22         5.3870  -22.4100  -10.7140 C.ar    1  MOL1       -0.0580
     23 C23         6.5610  -22.0070  -10.0770 C.ar    1  MOL1       -0.0160
     24 C24         6.5020  -21.2560   -8.8880 C.ar    1  MOL1        0.1610
     25 C14         2.6990  -21.0760   -8.3750 C.3     1  MOL1        0.0280
     26 N15         1.8530  -22.2850   -8.4290 N.3     1  MOL1       -0.2870
     27 C16         0.5030  -21.9790   -8.9330 C.3     1  MOL1        0.0640
     28 C17        -0.1480  -22.3140   -7.6050 C.3     1  MOL1        0.2720
     29 F18        -0.9600  -23.4330   -7.6500 F       1  MOL1       -0.2040
     30 F19        -0.7300  -21.2230   -6.9790 F       1  MOL1       -0.2040
     31 C20         1.2590  -22.6060   -7.1200 C.3     1  MOL1        0.0640
     32 O25         7.6570  -20.8320   -8.2160 O.3     1  MOL1       -0.4930
     33 C26         8.9780  -20.9500   -8.7320 C.3     1  MOL1        0.0780
@<TRIPOS>BOND
     1     3     4   ar
     2     3     2   ar
     3     4     5   ar
     4     2     1   ar
     5     5     6    1
     6     5     7   ar
     7    22    21   ar
     8    22    23   ar
     9     1     7   ar
    10     1     8    1
    11    21    20   ar
    12    23    24   ar
    13     9     8    1
    14     9    12    1
    15     8    14    1
    16    20    25    1
    17    20    19   ar
    18    27    26    1
    19    27    28    1
    20    24    19   ar
    21    24    32    1
    22    11    12   am
    23    11    10    1
    24    14    15   am
    25    33    32    1
    26    12    13    2
    27    26    25    1
    28    26    31    1
    29    19    18    1
    30    29    28    1
    31    28    31    1
    32    28    30    1
    33    15    17    1
    34    15    16    2
    35    18    17    1
