@<TRIPOS>MOLECULE
L3024_0_out.pdbqt
 33 35 0 0 0
SMALL
GASTEIGER

@<TRIPOS>ATOM
      1 C27         7.0050  -18.4920   -9.4310 C.ar    1  MOL1       -0.0240
      2 C28         6.2000  -18.6800   -8.2920 C.ar    1  MOL1       -0.0570
      3 C29         5.5970  -19.9180   -8.0490 C.ar    1  MOL1       -0.0610
      4 C30         5.7900  -20.9790   -8.9380 C.ar    1  MOL1       -0.0480
      5 C31         6.5900  -20.8070  -10.0720 C.ar    1  MOL1        0.0180
      6 Br32        6.8720  -22.2660  -11.2770 Br      1  MOL1       -0.0510
      7 C33         7.1910  -19.5690  -10.3220 C.ar    1  MOL1       -0.0430
      8  C6         7.5940  -17.1300   -9.7250 C.3     1  MOL1        0.0630
      9  C5         8.2140  -16.5360   -8.4470 C.3     1  MOL1        0.0510
     10  C1        11.6300  -18.3000   -9.0710 C.3     1  MOL1        0.0060
     11  N2        10.2410  -17.8830   -9.1970 N.am    1  MOL1       -0.3590
     12  C3         9.6460  -16.9540   -8.2840 C.2     1  MOL1        0.2220
     13  O4        10.3260  -16.4780   -7.3350 O.2     1  MOL1       -0.2750
     14  N7         6.5640  -16.2350  -10.2630 N.am    1  MOL1       -0.3460
     15  C8         6.2630  -16.1590  -11.6580 C.2     1  MOL1        0.2580
     16  O9         6.8970  -16.8680  -12.4840 O.2     1  MOL1       -0.2710
     17 C10         5.1810  -15.2470  -12.1520 C.3     1  MOL1        0.1670
     18 O11         4.8650  -14.2670  -11.1660 O.3     1  MOL1       -0.4800
     19 C12         3.7360  -13.4510  -11.2660 C.ar    1  MOL1        0.1660
     20 C13         2.5880  -13.6900  -10.4760 C.ar    1  MOL1        0.0120
     21 C21         1.5050  -12.7980  -10.5520 C.ar    1  MOL1       -0.0540
     22 C22         1.5410  -11.7150  -11.4310 C.ar    1  MOL1       -0.0580
     23 C23         2.6540  -11.5100  -12.2460 C.ar    1  MOL1       -0.0160
     24 C24         3.7580  -12.3790  -12.1730 C.ar    1  MOL1        0.1610
     25 C14         2.4920  -14.8830   -9.5510 C.3     1  MOL1        0.0280
     26 N15         3.1350  -14.5840   -8.2550 N.3     1  MOL1       -0.2870
     27 C16         4.3230  -15.4260   -8.0330 C.3     1  MOL1        0.0640
     28 C17         3.6810  -16.1500   -6.8660 C.3     1  MOL1        0.2720
     29 F18         4.2900  -15.8920   -5.6500 F       1  MOL1       -0.2040
     30 F19         3.4500  -17.4950   -7.1030 F       1  MOL1       -0.2040
     31 C20         2.4730  -15.2750   -7.1350 C.3     1  MOL1        0.0640
     32 O25         4.8960  -12.2080  -12.9760 O.3     1  MOL1       -0.4930
     33 C26         4.9580  -12.5240  -14.3620 C.3     1  MOL1        0.0780
@<TRIPOS>BOND
     1    33    32    1
     2    32    24    1
     3    16    15    2
     4    23    24   ar
     5    23    22   ar
     6    24    19   ar
     7    17    15    1
     8    17    18    1
     9    15    14   am
    10    22    21   ar
    11     6     5    1
    12    19    18    1
    13    19    20   ar
    14    21    20   ar
    15    20    25    1
    16     7     5   ar
    17     7     1   ar
    18    14     8    1
    19     5     4   ar
    20     8     1    1
    21     8     9    1
    22    25    26    1
    23     1     2   ar
    24    11    10    1
    25    11    12   am
    26     4     3   ar
    27     9    12    1
    28     2     3   ar
    29    12    13    2
    30    26    27    1
    31    26    31    1
    32    27    28    1
    33    31    28    1
    34    30    28    1
    35    28    29    1
