@<TRIPOS>MOLECULE
L3024_0_out.pdbqt
 33 35 0 0 0
SMALL
GASTEIGER

@<TRIPOS>ATOM
      1 C27        14.4590  -17.9310   -6.7340 C.ar    1  MOL1       -0.0240
      2 C28        14.0220  -16.6140   -6.9650 C.ar    1  MOL1       -0.0570
      3 C29        14.8570  -15.5300   -6.6730 C.ar    1  MOL1       -0.0610
      4 C30        16.1340  -15.7500   -6.1490 C.ar    1  MOL1       -0.0480
      5 C31        16.5820  -17.0550   -5.9180 C.ar    1  MOL1        0.0180
      6 Br32       18.3380  -17.3560   -5.2220 Br      1  MOL1       -0.0510
      7 C33        15.7480  -18.1410   -6.2040 C.ar    1  MOL1       -0.0430
      8  C6        13.5230  -19.0940   -6.9840 C.3     1  MOL1        0.0630
      9  C5        14.3250  -20.4030   -7.0890 C.3     1  MOL1        0.0510
     10  C1        12.6400  -23.8330   -6.3350 C.3     1  MOL1        0.0060
     11  N2        13.2840  -22.7270   -7.0280 N.am    1  MOL1       -0.3590
     12  C3        13.6520  -21.5220   -6.3480 C.2     1  MOL1        0.2220
     13  O4        13.4150  -21.3940   -5.1160 O.2     1  MOL1       -0.2750
     14  N7        12.7440  -18.8660   -8.2060 N.am    1  MOL1       -0.3460
     15  C8        11.3500  -19.1700   -8.2970 C.2     1  MOL1        0.2580
     16  O9        10.7420  -19.6640   -7.3110 O.2     1  MOL1       -0.2710
     17 C10        10.5950  -18.8930   -9.5620 C.3     1  MOL1        0.1670
     18 O11        10.3290  -20.1070  -10.2610 O.3     1  MOL1       -0.4800
     19 C12         9.0980  -20.7620  -10.1660 C.ar    1  MOL1        0.1660
     20 C13         7.8920  -20.1050  -10.5030 C.ar    1  MOL1        0.0120
     21 C21         6.6860  -20.8250  -10.4690 C.ar    1  MOL1       -0.0540
     22 C22         6.6700  -22.1590  -10.0620 C.ar    1  MOL1       -0.0580
     23 C23         7.8540  -22.7910   -9.6820 C.ar    1  MOL1       -0.0160
     24 C24         9.0770  -22.0960   -9.7260 C.ar    1  MOL1        0.1610
     25 C14         7.8640  -18.6450  -10.8980 C.3     1  MOL1        0.0280
     26 N15         6.9520  -17.8890  -10.0160 N.3     1  MOL1       -0.2870
     27 C16         7.4190  -16.5080   -9.8090 C.3     1  MOL1        0.0640
     28 C17         7.6840  -16.7400   -8.3350 C.3     1  MOL1        0.2720
     29 F18         6.8470  -16.0200   -7.5000 F       1  MOL1       -0.2040
     30 F19         9.0230  -16.6630   -7.9900 F       1  MOL1       -0.2040
     31 C20         7.2090  -18.1570   -8.5900 C.3     1  MOL1        0.0640
     32 O25        10.2880  -22.6940   -9.3520 O.3     1  MOL1       -0.4930
     33 C26        10.6190  -24.0590   -9.5850 C.3     1  MOL1        0.0780
@<TRIPOS>BOND
     1    25    20    1
     2    25    26    1
     3    20    21   ar
     4    20    19   ar
     5    21    22   ar
     6    18    19    1
     7    18    17    1
     8    19    24   ar
     9    22    23   ar
    10    26    27    1
    11    26    31    1
    12    27    28    1
    13    24    23   ar
    14    24    32    1
    15    33    32    1
    16    17    15    1
    17    31    28    1
    18    28    30    1
    19    28    29    1
    20    15    14   am
    21    15    16    2
    22    14     8    1
    23     9     8    1
    24     9    12    1
    25    11    12   am
    26    11    10    1
    27     8     1    1
    28     2     1   ar
    29     2     3   ar
    30     1     7   ar
    31     3     4   ar
    32    12    13    2
    33     7     5   ar
    34     4     5   ar
    35     5     6    1
