@<TRIPOS>MOLECULE
L3024_0_out.pdbqt
 33 35 0 0 0
SMALL
GASTEIGER

@<TRIPOS>ATOM
      1 C27         6.8870  -16.7570  -10.5660 C.ar    1  MOL1       -0.0240
      2 C28         7.0920  -17.3750  -11.8140 C.ar    1  MOL1       -0.0570
      3 C29         6.5720  -16.8030  -12.9800 C.ar    1  MOL1       -0.0610
      4 C30         5.8440  -15.6120  -12.9130 C.ar    1  MOL1       -0.0480
      5 C31         5.6360  -14.9860  -11.6790 C.ar    1  MOL1        0.0180
      6 Br32        4.6590  -13.3440  -11.5910 Br      1  MOL1       -0.0510
      7 C33         6.1500  -15.5570  -10.5100 C.ar    1  MOL1       -0.0430
      8  C6         7.3900  -17.4200   -9.3020 C.3     1  MOL1        0.0630
      9  C5         6.7110  -16.7920   -8.0720 C.3     1  MOL1        0.0510
     10  C1         4.4220  -19.8830   -7.4590 C.3     1  MOL1        0.0060
     11  N2         5.4970  -19.0270   -7.9390 N.am    1  MOL1       -0.3590
     12  C3         5.5840  -17.6470   -7.5680 C.2     1  MOL1        0.2220
     13  O4         4.7120  -17.1390   -6.8110 O.2     1  MOL1       -0.2750
     14  N7         8.8480  -17.2940   -9.2070 N.am    1  MOL1       -0.3460
     15  C8         9.6720  -18.3050   -8.6220 C.2     1  MOL1        0.2580
     16  O9         9.1530  -19.3520   -8.1510 O.2     1  MOL1       -0.2710
     17 C10        11.1610  -18.1370   -8.5740 C.3     1  MOL1        0.1670
     18 O11        11.7250  -18.9730   -7.5680 O.3     1  MOL1       -0.4800
     19 C12        12.9480  -19.6260   -7.7460 C.ar    1  MOL1        0.1660
     20 C13        14.1460  -18.8980   -7.9260 C.ar    1  MOL1        0.0120
     21 C21        15.3630  -19.5930   -8.0230 C.ar    1  MOL1       -0.0540
     22 C22        15.3860  -20.9880   -7.9900 C.ar    1  MOL1       -0.0580
     23 C23        14.1970  -21.7060   -7.8630 C.ar    1  MOL1       -0.0160
     24 C24        12.9680  -21.0300   -7.7440 C.ar    1  MOL1        0.1610
     25 C14        14.1540  -17.3880   -8.0200 C.3     1  MOL1        0.0280
     26 N15        14.0070  -16.7870   -6.6790 N.3     1  MOL1       -0.2870
     27 C16        13.0610  -15.6590   -6.6920 C.3     1  MOL1        0.0640
     28 C17        14.1450  -14.6510   -6.3650 C.3     1  MOL1        0.2720
     29 F18        14.0040  -14.0670   -5.1180 F       1  MOL1       -0.2040
     30 F19        14.3890  -13.7450   -7.3850 F       1  MOL1       -0.2040
     31 C20        15.0900  -15.8360   -6.3740 C.3     1  MOL1        0.0640
     32 O25        11.7510  -21.7150   -7.6150 O.3     1  MOL1       -0.4930
     33 C26        11.2320  -22.6240   -8.5800 C.3     1  MOL1        0.0780
@<TRIPOS>BOND
     1     3     4   ar
     2     3     2   ar
     3     4     5   ar
     4     2     1   ar
     5     5     6    1
     6     5     7   ar
     7     1     7   ar
     8     1     8    1
     9     8    14    1
    10     8     9    1
    11    14    15   am
    12    15    17    1
    13    15    16    2
    14    33    32    1
    15    17    18    1
    16     9    12    1
    17    21    22   ar
    18    21    20   ar
    19    25    20    1
    20    25    26    1
    21    22    23   ar
    22    11    12   am
    23    11    10    1
    24    20    19   ar
    25    23    24   ar
    26    19    24   ar
    27    19    18    1
    28    24    32    1
    29    12    13    2
    30    30    28    1
    31    27    26    1
    32    27    28    1
    33    26    31    1
    34    31    28    1
    35    28    29    1
