@<TRIPOS>MOLECULE
L3024_0_out.pdbqt
 33 35 0 0 0
SMALL
GASTEIGER

@<TRIPOS>ATOM
      1 C27         6.3840  -16.1680   -9.8520 C.ar    1  MOL1       -0.0240
      2 C28         5.3680  -15.1990   -9.9350 C.ar    1  MOL1       -0.0570
      3 C29         4.9130  -14.7550  -11.1820 C.ar    1  MOL1       -0.0610
      4 C30         5.4670  -15.2740  -12.3550 C.ar    1  MOL1       -0.0480
      5 C31         6.4760  -16.2410  -12.2870 C.ar    1  MOL1        0.0180
      6 Br32        7.2190  -16.9660  -13.8940 Br      1  MOL1       -0.0510
      7 C33         6.9380  -16.6820  -11.0430 C.ar    1  MOL1       -0.0430
      8  C6         6.9210  -16.5880   -8.5010 C.3     1  MOL1        0.0630
      9  C5         8.4550  -16.7030   -8.5560 C.3     1  MOL1        0.0510
     10  C1         9.9460  -20.1890   -7.6650 C.3     1  MOL1        0.0060
     11  N2         9.5160  -18.8010   -7.5770 N.am    1  MOL1       -0.3590
     12  C3         8.8970  -18.1320   -8.6810 C.2     1  MOL1        0.2220
     13  O4         8.7150  -18.7430   -9.7690 O.2     1  MOL1       -0.2750
     14  N7         6.3230  -17.8630   -8.0910 N.am    1  MOL1       -0.3460
     15  C8         5.0840  -17.9390   -7.3820 C.2     1  MOL1        0.2580
     16  O9         4.4640  -16.8870   -7.0740 O.2     1  MOL1       -0.2710
     17 C10         4.5040  -19.2700   -7.0100 C.3     1  MOL1        0.1670
     18 O11         5.2270  -20.3240   -7.6400 O.3     1  MOL1       -0.4800
     19 C12         4.6670  -21.1040   -8.6550 C.ar    1  MOL1        0.1660
     20 C13         5.4820  -21.7740   -9.5970 C.ar    1  MOL1        0.0120
     21 C21         4.8800  -22.6110  -10.5510 C.ar    1  MOL1       -0.0540
     22 C22         3.4930  -22.7430  -10.6030 C.ar    1  MOL1       -0.0580
     23 C23         2.6880  -22.0410   -9.7050 C.ar    1  MOL1       -0.0160
     24 C24         3.2690  -21.2130   -8.7270 C.ar    1  MOL1        0.1610
     25 C14         6.9860  -21.6130   -9.6060 C.3     1  MOL1        0.0280
     26 N15         7.6030  -22.5810  -10.5360 N.3     1  MOL1       -0.2870
     27 C16         8.3880  -23.5990   -9.8170 C.3     1  MOL1        0.0640
     28 C17         9.6960  -23.1110  -10.4060 C.3     1  MOL1        0.2720
     29 F18        10.2920  -24.0200  -11.2630 F       1  MOL1       -0.2040
     30 F19        10.5630  -22.5720   -9.4700 F       1  MOL1       -0.2040
     31 C20         8.8550  -22.0700  -11.1190 C.3     1  MOL1        0.0640
     32 O25         2.4950  -20.4910   -7.8070 O.3     1  MOL1       -0.4930
     33 C26         1.0730  -20.5210   -7.7500 C.3     1  MOL1        0.0780
@<TRIPOS>BOND
     1     6     5    1
     2     4     5   ar
     3     4     3   ar
     4     5     7   ar
     5    29    28    1
     6     3     2   ar
     7    31    26    1
     8    31    28    1
     9     7     1   ar
    10    22    21   ar
    11    22    23   ar
    12    21    20   ar
    13    26    27    1
    14    26    25    1
    15    28    27    1
    16    28    30    1
    17     2     1   ar
    18     1     8    1
    19    13    12    2
    20    23    24   ar
    21    25    20    1
    22    20    19   ar
    23    24    19   ar
    24    24    32    1
    25    12     9    1
    26    12    11   am
    27    19    18    1
    28     9     8    1
    29     8    14    1
    30    14    15   am
    31    32    33    1
    32    10    11    1
    33    18    17    1
    34    15    16    2
    35    15    17    1
