@<TRIPOS>MOLECULE
L3024_0_out.pdbqt
 33 35 0 0 0
SMALL
GASTEIGER

@<TRIPOS>ATOM
      1 C27         7.4720  -17.6930  -10.3150 C.ar    1  MOL1       -0.0240
      2 C28         7.8330  -18.3310  -11.5160 C.ar    1  MOL1       -0.0570
      3 C29         7.4360  -17.7990  -12.7470 C.ar    1  MOL1       -0.0610
      4 C30         6.6750  -16.6270  -12.7920 C.ar    1  MOL1       -0.0480
      5 C31         6.3120  -15.9810  -11.6050 C.ar    1  MOL1        0.0180
      6 Br32        5.2900  -14.3650  -11.6690 Br      1  MOL1       -0.0510
      7 C33         6.7030  -16.5130  -10.3720 C.ar    1  MOL1       -0.0430
      8  C6         7.8440  -18.3140   -8.9860 C.3     1  MOL1        0.0630
      9  C5         6.5900  -18.4640   -8.1050 C.3     1  MOL1        0.0510
     10  C1         3.9670  -21.3430   -8.0390 C.3     1  MOL1        0.0060
     11  N2         4.6020  -20.0410   -7.8910 N.am    1  MOL1       -0.3590
     12  C3         5.9670  -19.8210   -8.2600 C.2     1  MOL1        0.2220
     13  O4         6.6580  -20.7700   -8.7240 O.2     1  MOL1       -0.2750
     14  N7         8.8560  -17.4980   -8.3090 N.am    1  MOL1       -0.3460
     15  C8        10.2410  -17.8490   -8.2890 C.2     1  MOL1        0.2580
     16  O9        10.6380  -18.9010   -8.8590 O.2     1  MOL1       -0.2710
     17 C10        11.2390  -16.9640   -7.6040 C.3     1  MOL1        0.1670
     18 O11        12.3710  -17.7210   -7.1840 O.3     1  MOL1       -0.4800
     19 C12        13.6730  -17.3780   -7.5590 C.ar    1  MOL1        0.1660
     20 C13        14.4850  -18.2780   -8.2870 C.ar    1  MOL1        0.0120
     21 C21        15.7580  -17.8620   -8.7120 C.ar    1  MOL1       -0.0540
     22 C22        16.2360  -16.5950   -8.3790 C.ar    1  MOL1       -0.0580
     23 C23        15.4530  -15.7270   -7.6180 C.ar    1  MOL1       -0.0160
     24 C24        14.1670  -16.1140   -7.1980 C.ar    1  MOL1        0.1610
     25 C14        14.0220  -19.6790   -8.6200 C.3     1  MOL1        0.0280
     26 N15        14.9500  -20.6780   -8.0520 N.3     1  MOL1       -0.2870
     27 C16        14.3580  -22.0260   -8.0470 C.3     1  MOL1        0.0640
     28 C17        14.3220  -22.0840   -6.5320 C.3     1  MOL1        0.2720
     29 F18        15.1740  -23.0320   -5.9920 F       1  MOL1       -0.2040
     30 F19        13.0420  -22.1150   -6.0050 F       1  MOL1       -0.2040
     31 C20        14.9200  -20.6910   -6.5790 C.3     1  MOL1        0.0640
     32 O25        13.3480  -15.2720   -6.4310 O.3     1  MOL1       -0.4930
     33 C26        13.8140  -14.4410   -5.3730 C.3     1  MOL1        0.0780
@<TRIPOS>BOND
     1     4     3   ar
     2     4     5   ar
     3     3     2   ar
     4     6     5    1
     5     5     7   ar
     6     2     1   ar
     7     7     1   ar
     8     1     8    1
     9     8    14    1
    10     8     9    1
    11    16    15    2
    12    13    12    2
    13    21    22   ar
    14    21    20   ar
    15    25    20    1
    16    25    26    1
    17    22    23   ar
    18    14    15   am
    19    15    17    1
    20    20    19   ar
    21    12     9    1
    22    12    11   am
    23    26    27    1
    24    26    31    1
    25    27    28    1
    26    10    11    1
    27    23    24   ar
    28    17    18    1
    29    19    24   ar
    30    19    18    1
    31    24    32    1
    32    31    28    1
    33    28    30    1
    34    28    29    1
    35    32    33    1
