@<TRIPOS>MOLECULE
L3024_0_out.pdbqt
 33 35 0 0 0
SMALL
GASTEIGER

@<TRIPOS>ATOM
      1 C27         5.1930  -15.5650   -9.4190 C.ar    1  MOL1       -0.0240
      2 C28         4.0280  -15.2520   -8.6960 C.ar    1  MOL1       -0.0570
      3 C29         3.0170  -14.4810   -9.2800 C.ar    1  MOL1       -0.0610
      4 C30         3.1600  -14.0140  -10.5900 C.ar    1  MOL1       -0.0480
      5 C31         4.3130  -14.3210  -11.3220 C.ar    1  MOL1        0.0180
      6 Br32        4.4980  -13.7000  -13.1220 Br      1  MOL1       -0.0510
      7 C33         5.3280  -15.0870  -10.7380 C.ar    1  MOL1       -0.0430
      8  C6         6.3120  -16.3370   -8.7550 C.3     1  MOL1        0.0630
      9  C5         7.6170  -16.1670   -9.5540 C.3     1  MOL1        0.0510
     10  C1        10.5660  -18.5690   -8.7100 C.3     1  MOL1        0.0060
     11  N2         9.4260  -17.9510   -9.3730 N.am    1  MOL1       -0.3590
     12  C3         8.7840  -16.7870   -8.8410 C.2     1  MOL1        0.2220
     13  O4         9.1980  -16.2720   -7.7660 O.2     1  MOL1       -0.2750
     14  N7         5.9550  -17.7560   -8.6460 N.am    1  MOL1       -0.3460
     15  C8         5.1910  -18.2750   -7.5550 C.2     1  MOL1        0.2580
     16  O9         4.8030  -17.5120   -6.6310 O.2     1  MOL1       -0.2710
     17 C10         4.8310  -19.7300   -7.5060 C.3     1  MOL1        0.1670
     18 O11         3.4420  -19.9090   -7.7730 O.3     1  MOL1       -0.4800
     19 C12         2.9700  -20.9520   -8.5740 C.ar    1  MOL1        0.1660
     20 C13         3.8160  -21.6000   -9.5030 C.ar    1  MOL1        0.0120
     21 C21         3.3220  -22.6960  -10.2310 C.ar    1  MOL1       -0.0540
     22 C22         1.9990  -23.1100  -10.0760 C.ar    1  MOL1       -0.0580
     23 C23         1.1520  -22.4380   -9.1960 C.ar    1  MOL1       -0.0160
     24 C24         1.6300  -21.3500   -8.4410 C.ar    1  MOL1        0.1610
     25 C14         5.2390  -21.1460   -9.7370 C.3     1  MOL1        0.0280
     26 N15         6.0300  -22.2250  -10.3640 N.3     1  MOL1       -0.2870
     27 C16         7.3230  -22.4130   -9.6850 C.3     1  MOL1        0.0640
     28 C17         8.1090  -21.9540  -10.8970 C.3     1  MOL1        0.2720
     29 F18         8.8690  -22.9540  -11.4780 F       1  MOL1       -0.2040
     30 F19         8.7980  -20.7690  -10.6980 F       1  MOL1       -0.2040
     31 C20         6.7580  -21.7610  -11.5570 C.3     1  MOL1        0.0640
     32 O25         0.8110  -20.6470   -7.5460 O.3     1  MOL1       -0.4930
     33 C26        -0.4150  -20.0160   -7.9010 C.3     1  MOL1        0.0780
@<TRIPOS>BOND
     1     6     5    1
     2    31    28    1
     3    31    26    1
     4    29    28    1
     5     5     7   ar
     6     5     4   ar
     7    28    30    1
     8    28    27    1
     9     7     1   ar
    10     4     3   ar
    11    26    25    1
    12    26    27    1
    13    21    22   ar
    14    21    20   ar
    15    22    23   ar
    16    25    20    1
    17     9    12    1
    18     9     8    1
    19    20    19   ar
    20     1     8    1
    21     1     2   ar
    22    11    12   am
    23    11    10    1
    24     3     2   ar
    25    23    24   ar
    26    12    13    2
    27     8    14    1
    28    14    15   am
    29    19    24   ar
    30    19    18    1
    31    24    32    1
    32    33    32    1
    33    18    17    1
    34    15    17    1
    35    15    16    2
