@<TRIPOS>MOLECULE
L3024_0_out.pdbqt
 33 35 0 0 0
SMALL
GASTEIGER

@<TRIPOS>ATOM
      1 C27         6.5600  -18.3270   -8.4310 C.ar    1  MOL1       -0.0240
      2 C28         5.8380  -19.5240   -8.2750 C.ar    1  MOL1       -0.0570
      3 C29         4.6390  -19.5370   -7.5540 C.ar    1  MOL1       -0.0610
      4 C30         4.1500  -18.3580   -6.9830 C.ar    1  MOL1       -0.0480
      5 C31         4.8580  -17.1610   -7.1340 C.ar    1  MOL1        0.0180
      6 Br32        4.1770  -15.5430   -6.3710 Br      1  MOL1       -0.0510
      7 C33         6.0600  -17.1440   -7.8490 C.ar    1  MOL1       -0.0430
      8  C6         7.8920  -18.3350   -9.1490 C.3     1  MOL1        0.0630
      9  C5         7.7580  -19.0600  -10.5010 C.3     1  MOL1        0.0510
     10  C1        11.3010  -19.0720  -12.1210 C.3     1  MOL1        0.0060
     11  N2        10.0000  -18.6360  -11.6340 N.am    1  MOL1       -0.3590
     12  C3         9.0890  -19.5420  -11.0020 C.2     1  MOL1        0.2220
     13  O4         9.4010  -20.7560  -10.8580 O.2     1  MOL1       -0.2750
     14  N7         8.9140  -18.9800   -8.3180 N.am    1  MOL1       -0.3460
     15  C8        10.1390  -18.3330   -7.9640 C.2     1  MOL1        0.2580
     16  O9        10.3830  -17.1680   -8.3750 O.2     1  MOL1       -0.2710
     17 C10        11.1380  -19.0280   -7.0890 C.3     1  MOL1        0.1670
     18 O11        12.2420  -19.4920   -7.8630 O.3     1  MOL1       -0.4800
     19 C12        13.4170  -19.9620   -7.2710 C.ar    1  MOL1        0.1660
     20 C13        14.5130  -19.1000   -7.0370 C.ar    1  MOL1        0.0120
     21 C21        15.6450  -19.5960   -6.3680 C.ar    1  MOL1       -0.0540
     22 C22        15.7080  -20.9340   -5.9810 C.ar    1  MOL1       -0.0580
     23 C23        14.6460  -21.7950   -6.2580 C.ar    1  MOL1       -0.0160
     24 C24        13.4940  -21.3160   -6.9090 C.ar    1  MOL1        0.1610
     25 C14        14.5020  -17.6560   -7.4900 C.3     1  MOL1        0.0280
     26 N15        14.1540  -16.7650   -6.3640 N.3     1  MOL1       -0.2870
     27 C16        13.1060  -15.8020   -6.7400 C.3     1  MOL1        0.0640
     28 C17        14.0420  -14.6180   -6.6030 C.3     1  MOL1        0.2720
     29 F18        13.7120  -13.7660   -5.5630 F       1  MOL1       -0.2040
     30 F19        14.3000  -13.9690   -7.8000 F       1  MOL1       -0.2040
     31 C20        15.0970  -15.6420   -6.2330 C.3     1  MOL1        0.0640
     32 O25        12.4050  -22.1490   -7.2060 O.3     1  MOL1       -0.4930
     33 C26        12.4280  -23.5690   -7.1100 C.3     1  MOL1        0.0780
@<TRIPOS>BOND
     1    10    11    1
     2    11    12   am
     3    12    13    2
     4    12     9    1
     5     9     8    1
     6     8     1    1
     7     8    14    1
     8     1     2   ar
     9     1     7   ar
    10    16    15    2
    11    14    15   am
    12     2     3   ar
    13    15    17    1
    14    18    19    1
    15    18    17    1
    16     7     5   ar
    17    30    28    1
    18     3     4   ar
    19    25    20    1
    20    25    26    1
    21    19    20   ar
    22    19    24   ar
    23    32    33    1
    24    32    24    1
    25     5     4   ar
    26     5     6    1
    27    20    21   ar
    28    24    23   ar
    29    27    28    1
    30    27    26    1
    31    28    31    1
    32    28    29    1
    33    21    22   ar
    34    26    31    1
    35    23    22   ar
