@<TRIPOS>MOLECULE
L3024_0_out.pdbqt
 33 35 0 0 0
SMALL
GASTEIGER

@<TRIPOS>ATOM
      1 C27         9.4140  -18.6020   -9.5620 C.ar    1  MOL1       -0.0240
      2 C28         9.4270  -17.7530   -8.4410 C.ar    1  MOL1       -0.0570
      3 C29         8.6220  -16.6090   -8.4110 C.ar    1  MOL1       -0.0610
      4 C30         7.7980  -16.3030   -9.4970 C.ar    1  MOL1       -0.0480
      5 C31         7.7730  -17.1410  -10.6170 C.ar    1  MOL1        0.0180
      6 Br32        6.6290  -16.7330  -12.0950 Br      1  MOL1       -0.0510
      7 C33         8.5810  -18.2830  -10.6530 C.ar    1  MOL1       -0.0430
      8  C6        10.3420  -19.7970   -9.6170 C.3     1  MOL1        0.0630
      9  C5         9.6930  -21.0010   -8.9100 C.3     1  MOL1        0.0510
     10  C1         6.6370  -22.6650  -10.6610 C.3     1  MOL1        0.0060
     11  N2         7.4540  -21.8820   -9.7450 N.am    1  MOL1       -0.3590
     12  C3         8.8790  -21.8270   -9.8640 C.2     1  MOL1        0.2220
     13  O4         9.4630  -22.4720  -10.7780 O.2     1  MOL1       -0.2750
     14  N7        11.6310  -19.4690   -9.0000 N.am    1  MOL1       -0.3460
     15  C8        11.9380  -19.7920   -7.6420 C.2     1  MOL1        0.2580
     16  O9        11.0850  -20.3720   -6.9180 O.2     1  MOL1       -0.2710
     17 C10        13.2810  -19.4560   -7.0670 C.3     1  MOL1        0.1670
     18 O11        14.2520  -19.3380   -8.1050 O.3     1  MOL1       -0.4800
     19 C12        15.5960  -19.0660   -7.8350 C.ar    1  MOL1        0.1660
     20 C13        16.0730  -17.7370   -7.7670 C.ar    1  MOL1        0.0120
     21 C21        17.4140  -17.5080   -7.4150 C.ar    1  MOL1       -0.0540
     22 C22        18.2780  -18.5780   -7.1830 C.ar    1  MOL1       -0.0580
     23 C23        17.8170  -19.8890   -7.3000 C.ar    1  MOL1       -0.0160
     24 C24        16.4730  -20.1440   -7.6320 C.ar    1  MOL1        0.1610
     25 C14        15.1800  -16.5530   -8.0640 C.3     1  MOL1        0.0280
     26 N15        15.3140  -15.5280   -7.0090 N.3     1  MOL1       -0.2870
     27 C16        14.5180  -15.8680   -5.8180 C.3     1  MOL1        0.0640
     28 C17        13.5890  -14.6850   -6.0110 C.3     1  MOL1        0.2720
     29 F18        13.6930  -13.7290   -5.0160 F       1  MOL1       -0.2040
     30 F19        12.2850  -15.0430   -6.3110 F       1  MOL1       -0.2040
     31 C20        14.4260  -14.3750   -7.2370 C.3     1  MOL1        0.0640
     32 O25        15.9710  -21.4470   -7.7600 O.3     1  MOL1       -0.4930
     33 C26        16.5590  -22.4610   -8.5680 C.3     1  MOL1        0.0780
@<TRIPOS>BOND
     1     6     5    1
     2    13    12    2
     3    10    11    1
     4     7     5   ar
     5     7     1   ar
     6     5     4   ar
     7    12    11   am
     8    12     9    1
     9     8     1    1
    10     8    14    1
    11     8     9    1
    12     1     2   ar
    13     4     3   ar
    14    14    15   am
    15    33    32    1
    16     2     3   ar
    17    18    19    1
    18    18    17    1
    19    25    20    1
    20    25    26    1
    21    19    20   ar
    22    19    24   ar
    23    20    21   ar
    24    32    24    1
    25    15    17    1
    26    15    16    2
    27    24    23   ar
    28    21    22   ar
    29    23    22   ar
    30    31    26    1
    31    31    28    1
    32    26    27    1
    33    30    28    1
    34    28    27    1
    35    28    29    1
