@<TRIPOS>MOLECULE
L3024_0_out.pdbqt
 33 35 0 0 0
SMALL
GASTEIGER

@<TRIPOS>ATOM
      1 C27        11.1200  -17.9020   -8.7810 C.ar    1  MOL1       -0.0240
      2 C28        11.1160  -18.5860  -10.0100 C.ar    1  MOL1       -0.0570
      3 C29         9.9250  -18.7470  -10.7260 C.ar    1  MOL1       -0.0610
      4 C30         8.7290  -18.2290  -10.2230 C.ar    1  MOL1       -0.0480
      5 C31         8.7190  -17.5440   -9.0030 C.ar    1  MOL1        0.0180
      6 Br32        7.0850  -16.8150   -8.3260 Br      1  MOL1       -0.0510
      7 C33         9.9070  -17.3850   -8.2820 C.ar    1  MOL1       -0.0430
      8  C6        12.3990  -17.7950   -7.9780 C.3     1  MOL1        0.0630
      9  C5        12.4090  -16.4810   -7.1750 C.3     1  MOL1        0.0510
     10  C1        15.7330  -14.5070   -7.6520 C.3     1  MOL1        0.0060
     11  N2        14.3830  -15.0180   -7.8440 N.am    1  MOL1       -0.3590
     12  C3        13.8070  -15.9810   -6.9550 C.2     1  MOL1        0.2220
     13  O4        14.4730  -16.4160   -5.9760 O.2     1  MOL1       -0.2750
     14  N7        13.5640  -17.8670   -8.8650 N.am    1  MOL1       -0.3460
     15  C8        14.5380  -18.9080   -8.7730 C.2     1  MOL1        0.2580
     16  O9        14.4250  -19.8080   -7.8990 O.2     1  MOL1       -0.2710
     17 C10        15.6970  -18.9490   -9.7230 C.3     1  MOL1        0.1670
     18 O11        16.7800  -18.1690   -9.2230 O.3     1  MOL1       -0.4800
     19 C12        17.9850  -18.7480   -8.8140 C.ar    1  MOL1        0.1660
     20 C13        18.2650  -18.9650   -7.4460 C.ar    1  MOL1        0.0120
     21 C21        19.4530  -19.6220   -7.0850 C.ar    1  MOL1       -0.0540
     22 C22        20.3700  -20.0130   -8.0610 C.ar    1  MOL1       -0.0580
     23 C23        20.1150  -19.7530   -9.4070 C.ar    1  MOL1       -0.0160
     24 C24        18.9220  -19.1140   -9.7940 C.ar    1  MOL1        0.1610
     25 C14        17.3200  -18.5070   -6.3570 C.3     1  MOL1        0.0280
     26 N15        17.5090  -19.3160   -5.1360 N.3     1  MOL1       -0.2870
     27 C16        16.2530  -19.9560   -4.7100 C.3     1  MOL1        0.0640
     28 C17        16.1830  -19.1400   -3.4350 C.3     1  MOL1        0.2720
     29 F18        16.3380  -19.8930   -2.2840 F       1  MOL1       -0.2040
     30 F19        15.1110  -18.2640   -3.3920 F       1  MOL1       -0.2040
     31 C20        17.4690  -18.4950   -3.9130 C.3     1  MOL1        0.0640
     32 O25        18.6280  -18.8340  -11.1370 O.3     1  MOL1       -0.4930
     33 C26        18.6970  -19.7860  -12.1920 C.3     1  MOL1        0.0780
@<TRIPOS>BOND
     1    33    32    1
     2    32    24    1
     3     3     4   ar
     4     3     2   ar
     5     4     5   ar
     6     2     1   ar
     7    24    23   ar
     8    24    19   ar
     9    17    18    1
    10    17    15    1
    11    23    22   ar
    12    18    19    1
    13     5     6    1
    14     5     7   ar
    15    14    15   am
    16    14     8    1
    17    19    20   ar
    18     1     7   ar
    19     1     8    1
    20    15    16    2
    21    22    21   ar
    22     8     9    1
    23    11    10    1
    24    11    12   am
    25    20    21   ar
    26    20    25    1
    27     9    12    1
    28    12    13    2
    29    25    26    1
    30    26    27    1
    31    26    31    1
    32    27    28    1
    33    31    28    1
    34    28    30    1
    35    28    29    1
