@<TRIPOS>MOLECULE
L3024_0_out.pdbqt
 33 35 0 0 0
SMALL
GASTEIGER

@<TRIPOS>ATOM
      1 C27         8.8550  -20.5260   -9.0390 C.ar    1  MOL1       -0.0240
      2 C28         7.5280  -20.8820   -8.7380 C.ar    1  MOL1       -0.0570
      3 C29         7.0440  -22.1520   -9.0720 C.ar    1  MOL1       -0.0610
      4 C30         7.8770  -23.0760   -9.7080 C.ar    1  MOL1       -0.0480
      5 C31         9.2000  -22.7360  -10.0090 C.ar    1  MOL1        0.0180
      6 Br32       10.3470  -24.0090  -10.8600 Br      1  MOL1       -0.0510
      7 C33         9.6870  -21.4660   -9.6820 C.ar    1  MOL1       -0.0430
      8  C6         9.3500  -19.1270   -8.7410 C.3     1  MOL1        0.0630
      9  C5         8.9580  -18.1740   -9.8850 C.3     1  MOL1        0.0510
     10  C1         6.0230  -16.5910   -7.8720 C.3     1  MOL1        0.0060
     11  N2         7.0700  -17.5010   -8.3130 N.am    1  MOL1       -0.3590
     12  C3         7.8780  -17.2210   -9.4610 C.2     1  MOL1        0.2220
     13  O4         7.6890  -16.1650  -10.1250 O.2     1  MOL1       -0.2750
     14  N7        10.8040  -19.1320   -8.5490 N.am    1  MOL1       -0.3460
     15  C8        11.4170  -19.5440   -7.3250 C.2     1  MOL1        0.2580
     16  O9        10.7070  -19.9130   -6.3520 O.2     1  MOL1       -0.2710
     17 C10        12.9100  -19.5550   -7.1910 C.3     1  MOL1        0.1670
     18 O11        13.5260  -19.2810   -8.4470 O.3     1  MOL1       -0.4800
     19 C12        14.8910  -19.0040   -8.5590 C.ar    1  MOL1        0.1660
     20 C13        15.3820  -17.6840   -8.4360 C.ar    1  MOL1        0.0120
     21 C21        16.7690  -17.4620   -8.4760 C.ar    1  MOL1       -0.0540
     22 C22        17.6500  -18.5230   -8.6830 C.ar    1  MOL1       -0.0580
     23 C23        17.1600  -19.8180   -8.8550 C.ar    1  MOL1       -0.0160
     24 C24        15.7770  -20.0680   -8.7990 C.ar    1  MOL1        0.1610
     25 C14        14.4540  -16.5020   -8.2640 C.3     1  MOL1        0.0280
     26 N15        14.8530  -15.7000   -7.0890 N.3     1  MOL1       -0.2870
     27 C16        14.2610  -16.2270   -5.8470 C.3     1  MOL1        0.0640
     28 C17        13.4040  -14.9930   -5.6460 C.3     1  MOL1        0.2720
     29 F18        13.7560  -14.2460   -4.5360 F       1  MOL1       -0.2040
     30 F19        12.0440  -15.2360   -5.7500 F       1  MOL1       -0.2040
     31 C20        14.0260  -14.4910   -6.9350 C.3     1  MOL1        0.0640
     32 O25        15.2440  -21.3540   -8.9670 O.3     1  MOL1       -0.4930
     33 C26        16.0110  -22.5540   -8.9420 C.3     1  MOL1        0.0780
@<TRIPOS>BOND
     1     6     5    1
     2    13    12    2
     3     5     4   ar
     4     5     7   ar
     5     9    12    1
     6     9     8    1
     7     4     3   ar
     8     7     1   ar
     9    12    11   am
    10     3     2   ar
    11     1     8    1
    12     1     2   ar
    13    32    33    1
    14    32    24    1
    15    23    24   ar
    16    23    22   ar
    17    24    19   ar
    18     8    14    1
    19    22    21   ar
    20    19    18    1
    21    19    20   ar
    22    14    15   am
    23    21    20   ar
    24    18    17    1
    25    20    25    1
    26    11    10    1
    27    25    26    1
    28    15    17    1
    29    15    16    2
    30    26    31    1
    31    26    27    1
    32    31    28    1
    33    27    28    1
    34    30    28    1
    35    28    29    1
