@<TRIPOS>MOLECULE
L3024_0_out.pdbqt
 33 35 0 0 0
SMALL
GASTEIGER

@<TRIPOS>ATOM
      1 C27         7.1070  -16.9840  -10.5810 C.ar    1  MOL1       -0.0240
      2 C28         7.2780  -17.6070  -11.8310 C.ar    1  MOL1       -0.0570
      3 C29         6.7080  -17.0520  -12.9820 C.ar    1  MOL1       -0.0610
      4 C30         5.9640  -15.8720  -12.8980 C.ar    1  MOL1       -0.0480
      5 C31         5.7890  -15.2400  -11.6610 C.ar    1  MOL1        0.0180
      6 Br32        4.7890  -13.6130  -11.5500 Br      1  MOL1       -0.0510
      7 C33         6.3530  -15.7950  -10.5080 C.ar    1  MOL1       -0.0430
      8  C6         7.6640  -17.6290   -9.3310 C.3     1  MOL1        0.0630
      9  C5         7.4800  -16.6890   -8.1260 C.3     1  MOL1        0.0510
     10  C1         4.1960  -15.8580   -6.2040 C.3     1  MOL1        0.0060
     11  N2         5.5210  -15.7510   -6.7960 N.am    1  MOL1       -0.3590
     12  C3         6.1160  -16.8350   -7.5170 C.2     1  MOL1        0.2220
     13  O4         5.4930  -17.9240   -7.6490 O.2     1  MOL1       -0.2750
     14  N7         9.0820  -17.9580   -9.5170 N.am    1  MOL1       -0.3460
     15  C8         9.7160  -19.0400   -8.8340 C.2     1  MOL1        0.2580
     16  O9         9.0620  -19.7520   -8.0260 O.2     1  MOL1       -0.2710
     17 C10        11.1620  -19.3500   -9.0810 C.3     1  MOL1        0.1670
     18 O11        11.7780  -19.8390   -7.8920 O.3     1  MOL1       -0.4800
     19 C12        13.0100  -20.4990   -7.9120 C.ar    1  MOL1        0.1660
     20 C13        13.0820  -21.9110   -7.8960 C.ar    1  MOL1        0.0120
     21 C21        14.3380  -22.5340   -7.9970 C.ar    1  MOL1       -0.0540
     22 C22        15.5030  -21.7710   -8.0650 C.ar    1  MOL1       -0.0580
     23 C23        15.4320  -20.3780   -8.0310 C.ar    1  MOL1       -0.0160
     24 C24        14.1850  -19.7310   -7.9500 C.ar    1  MOL1        0.1610
     25 C14        11.8440  -22.7710   -7.7690 C.3     1  MOL1        0.0280
     26 N15        11.5860  -23.4920   -9.0320 N.3     1  MOL1       -0.2870
     27 C16        10.1430  -23.6720   -9.2680 C.3     1  MOL1        0.0640
     28 C17        10.2340  -25.1790   -9.1260 C.3     1  MOL1        0.2720
     29 F18         9.9730  -25.8640  -10.3000 F       1  MOL1       -0.2040
     30 F19         9.5600  -25.6770   -8.0240 F       1  MOL1       -0.2040
     31 C20        11.7120  -24.9510   -8.8750 C.3     1  MOL1        0.0640
     32 O25        14.0710  -18.3340   -7.9120 O.3     1  MOL1       -0.4930
     33 C26        15.0970  -17.4310   -8.3100 C.3     1  MOL1        0.0780
@<TRIPOS>BOND
     1     3     4   ar
     2     3     2   ar
     3     4     5   ar
     4     2     1   ar
     5     5     6    1
     6     5     7   ar
     7     1     7   ar
     8     1     8    1
     9    29    28    1
    10    14     8    1
    11    14    15   am
    12     8     9    1
    13    27    28    1
    14    27    26    1
    15    28    31    1
    16    28    30    1
    17    17    15    1
    18    17    18    1
    19    26    31    1
    20    26    25    1
    21    15    16    2
    22    33    32    1
    23     9    12    1
    24    22    23   ar
    25    22    21   ar
    26    23    24   ar
    27    21    20   ar
    28    24    19   ar
    29    24    32    1
    30    19    20   ar
    31    19    18    1
    32    20    25    1
    33    13    12    2
    34    12    11   am
    35    11    10    1
