@<TRIPOS>MOLECULE
L3024_0_out.pdbqt
 33 35 0 0 0
SMALL
GASTEIGER

@<TRIPOS>ATOM
      1 C27        18.1610  -18.2370   -9.7960 C.ar    1  MOL1       -0.0240
      2 C28        19.3620  -18.9700   -9.7940 C.ar    1  MOL1       -0.0570
      3 C29        20.4070  -18.6170  -10.6540 C.ar    1  MOL1       -0.0610
      4 C30        20.2640  -17.5320  -11.5230 C.ar    1  MOL1       -0.0480
      5 C31        19.0760  -16.7930  -11.5330 C.ar    1  MOL1        0.0180
      6 Br32       18.8890  -15.2950  -12.7080 Br      1  MOL1       -0.0510
      7 C33        18.0270  -17.1460  -10.6780 C.ar    1  MOL1       -0.0430
      8  C6        17.0090  -18.6690   -8.9140 C.3     1  MOL1        0.0630
      9  C5        15.7010  -18.6820   -9.7250 C.3     1  MOL1        0.0510
     10  C1        13.7810  -21.2700   -7.5360 C.3     1  MOL1        0.0060
     11  N2        14.8320  -20.5930   -8.2820 N.am    1  MOL1       -0.3590
     12  C3        14.5930  -19.3620   -8.9730 C.2     1  MOL1        0.2220
     13  O4        13.4470  -18.8360   -8.9510 O.2     1  MOL1       -0.2750
     14  N7        16.8910  -17.7750   -7.7580 N.am    1  MOL1       -0.3460
     15  C8        17.1150  -18.2180   -6.4170 C.2     1  MOL1        0.2580
     16  O9        17.4190  -19.4180   -6.1870 O.2     1  MOL1       -0.2710
     17 C10        17.0070  -17.2550   -5.2730 C.3     1  MOL1        0.1670
     18 O11        15.7400  -17.3840   -4.6310 O.3     1  MOL1       -0.4800
     19 C12        15.1360  -16.3160   -3.9630 C.ar    1  MOL1        0.1660
     20 C13        15.0940  -16.2670   -2.5500 C.ar    1  MOL1        0.0120
     21 C21        14.5480  -15.1370   -1.9200 C.ar    1  MOL1       -0.0540
     22 C22        14.0080  -14.0960   -2.6760 C.ar    1  MOL1       -0.0580
     23 C23        14.0040  -14.1700   -4.0690 C.ar    1  MOL1       -0.0160
     24 C24        14.5640  -15.2820   -4.7230 C.ar    1  MOL1        0.1610
     25 C14        15.6220  -17.4000   -1.6980 C.3     1  MOL1        0.0280
     26 N15        14.5540  -18.3850   -1.4320 N.3     1  MOL1       -0.2870
     27 C16        14.2090  -18.4360   -0.0010 C.3     1  MOL1        0.0640
     28 C17        14.7260  -19.8530    0.1480 C.3     1  MOL1        0.2720
     29 F18        13.7360  -20.7810    0.4190 F       1  MOL1       -0.2040
     30 F19        15.8340  -19.9590    0.9740 F       1  MOL1       -0.2040
     31 C20        15.0790  -19.7570   -1.3230 C.3     1  MOL1        0.0640
     32 O25        14.5800  -15.3950   -6.1210 O.3     1  MOL1       -0.4930
     33 C26        13.4770  -15.8350   -6.9060 C.3     1  MOL1        0.0780
@<TRIPOS>BOND
     1     6     5    1
     2     5     4   ar
     3     5     7   ar
     4     4     3   ar
     5     7     1   ar
     6     3     2   ar
     7     1     2   ar
     8     1     8    1
     9     9    12    1
    10     9     8    1
    11    12    13    2
    12    12    11   am
    13     8    14    1
    14    11    10    1
    15    14    15   am
    16    33    32    1
    17    15    16    2
    18    15    17    1
    19    32    24    1
    20    17    18    1
    21    24    23   ar
    22    24    19   ar
    23    18    19    1
    24    23    22   ar
    25    19    20   ar
    26    22    21   ar
    27    20    21   ar
    28    20    25    1
    29    25    26    1
    30    26    31    1
    31    26    27    1
    32    31    28    1
    33    27    28    1
    34    28    29    1
    35    28    30    1
