@<TRIPOS>MOLECULE
L3024_0_out.pdbqt
 33 35 0 0 0
SMALL
GASTEIGER

@<TRIPOS>ATOM
      1 C27        14.2800  -19.1980   -7.4690 C.ar    1  MOL1       -0.0240
      2 C28        14.5800  -19.3310   -6.1010 C.ar    1  MOL1       -0.0570
      3 C29        15.3800  -20.3880   -5.6510 C.ar    1  MOL1       -0.0610
      4 C30        15.8860  -21.3200   -6.5600 C.ar    1  MOL1       -0.0480
      5 C31        15.5980  -21.1980   -7.9240 C.ar    1  MOL1        0.0180
      6 Br32       16.3090  -22.4630   -9.1710 Br      1  MOL1       -0.0510
      7 C33        14.7940  -20.1460   -8.3770 C.ar    1  MOL1       -0.0430
      8  C6        13.3560  -18.0960   -7.9380 C.3     1  MOL1        0.0630
      9  C5        12.6290  -18.5280   -9.2240 C.3     1  MOL1        0.0510
     10  C1         9.0840  -20.0640   -8.7220 C.3     1  MOL1        0.0060
     11  N2        10.5170  -19.9230   -8.9410 N.am    1  MOL1       -0.3590
     12  C3        11.1470  -18.6400   -9.0080 C.2     1  MOL1        0.2220
     13  O4        10.4590  -17.5900   -8.8820 O.2     1  MOL1       -0.2750
     14  N7        14.1130  -16.8600   -8.1630 N.am    1  MOL1       -0.3460
     15  C8        14.2530  -15.8500   -7.1610 C.2     1  MOL1        0.2580
     16  O9        13.7090  -15.9940   -6.0340 O.2     1  MOL1       -0.2710
     17 C10        15.0600  -14.6170   -7.4360 C.3     1  MOL1        0.1670
     18 O11        16.4360  -14.9490   -7.6080 O.3     1  MOL1       -0.4800
     19 C12        17.0210  -16.0440   -6.9660 C.ar    1  MOL1        0.1660
     20 C13        17.3710  -17.2110   -7.6830 C.ar    1  MOL1        0.0120
     21 C21        18.0280  -18.2560   -7.0130 C.ar    1  MOL1       -0.0540
     22 C22        18.2900  -18.1660   -5.6460 C.ar    1  MOL1       -0.0580
     23 C23        17.8990  -17.0340   -4.9300 C.ar    1  MOL1       -0.0160
     24 C24        17.2570  -15.9660   -5.5840 C.ar    1  MOL1        0.1610
     25 C14        17.0550  -17.3660   -9.1550 C.3     1  MOL1        0.0280
     26 N15        18.2130  -17.9350   -9.8740 N.3     1  MOL1       -0.2870
     27 C16        18.4980  -17.1930  -11.1140 C.3     1  MOL1        0.0640
     28 C17        18.1370  -18.3750  -11.9910 C.3     1  MOL1        0.2720
     29 F18        19.2130  -18.9020  -12.6850 F       1  MOL1       -0.2040
     30 F19        17.0130  -18.1670  -12.7720 F       1  MOL1       -0.2040
     31 C20        17.8420  -19.1010  -10.6930 C.3     1  MOL1        0.0640
     32 O25        16.8470  -14.8120   -4.9000 O.3     1  MOL1       -0.4930
     33 C26        16.0320  -14.8140   -3.7330 C.3     1  MOL1        0.0780
@<TRIPOS>BOND
     1    30    28    1
     2    29    28    1
     3    28    27    1
     4    28    31    1
     5    27    26    1
     6    31    26    1
     7    26    25    1
     8     9    12    1
     9     9     8    1
    10     6     5    1
    11    25    20    1
    12    12    11   am
    13    12    13    2
    14    11    10    1
    15     7     5   ar
    16     7     1   ar
    17    14     8    1
    18    14    15   am
    19     8     1    1
    20     5     4   ar
    21    20    21   ar
    22    20    19   ar
    23    18    17    1
    24    18    19    1
    25     1     2   ar
    26    17    15    1
    27    15    16    2
    28    21    22   ar
    29    19    24   ar
    30     4     3   ar
    31     2     3   ar
    32    22    23   ar
    33    24    23   ar
    34    24    32    1
    35    32    33    1
