@<TRIPOS>MOLECULE
L3024_0_out.pdbqt
 33 35 0 0 0
SMALL
GASTEIGER

@<TRIPOS>ATOM
      1 C27         3.9310  -14.3260  -10.2000 C.ar    1  MOL1       -0.0240
      2 C28         2.7500  -14.4830   -9.4520 C.ar    1  MOL1       -0.0570
      3 C29         1.6080  -13.7390   -9.7680 C.ar    1  MOL1       -0.0610
      4 C30         1.6340  -12.8320  -10.8310 C.ar    1  MOL1       -0.0480
      5 C31         2.8020  -12.6690  -11.5850 C.ar    1  MOL1        0.0180
      6 Br32        2.8300  -11.4430  -13.0540 Br      1  MOL1       -0.0510
      7 C33         3.9470  -13.4070  -11.2690 C.ar    1  MOL1       -0.0430
      8  C6         5.1820  -15.0810   -9.8060 C.3     1  MOL1        0.0630
      9  C5         6.1220  -15.2140  -11.0190 C.3     1  MOL1        0.0510
     10  C1         8.2640  -18.4060  -11.6440 C.3     1  MOL1        0.0060
     11  N2         7.2910  -17.3360  -11.8050 N.am    1  MOL1       -0.3590
     12  C3         7.1270  -16.3100  -10.8190 C.2     1  MOL1        0.2220
     13  O4         7.8320  -16.3210   -9.7730 O.2     1  MOL1       -0.2750
     14  N7         4.8330  -16.4040   -9.2770 N.am    1  MOL1       -0.3460
     15  C8         4.9980  -16.7500   -7.9010 C.2     1  MOL1        0.2580
     16  O9         5.4700  -15.9120   -7.0870 O.2     1  MOL1       -0.2710
     17 C10         4.6000  -18.1090   -7.4070 C.3     1  MOL1        0.1670
     18 O11         5.6910  -19.0190   -7.5180 O.3     1  MOL1       -0.4800
     19 C12         5.6890  -20.0700   -8.4390 C.ar    1  MOL1        0.1660
     20 C13         4.5250  -20.8370   -8.6720 C.ar    1  MOL1        0.0120
     21 C21         4.5460  -21.8310   -9.6640 C.ar    1  MOL1       -0.0540
     22 C22         5.7140  -22.0940  -10.3790 C.ar    1  MOL1       -0.0580
     23 C23         6.8760  -21.3690  -10.1130 C.ar    1  MOL1       -0.0160
     24 C24         6.8740  -20.3550   -9.1380 C.ar    1  MOL1        0.1610
     25 C14         3.2550  -20.6180   -7.8790 C.3     1  MOL1        0.0280
     26 N15         2.0820  -21.0880   -8.6440 N.3     1  MOL1       -0.2870
     27 C16         0.8230  -20.8010   -7.9350 C.3     1  MOL1        0.0640
     28 C17         0.5220  -22.2710   -7.7240 C.3     1  MOL1        0.2720
     29 F18        -0.5890  -22.7160   -8.4200 F       1  MOL1       -0.2040
     30 F19         0.5430  -22.6600   -6.3940 F       1  MOL1       -0.2040
     31 C20         1.8300  -22.5260   -8.4470 C.3     1  MOL1        0.0640
     32 O25         8.0210  -19.6050   -8.8400 O.3     1  MOL1       -0.4930
     33 C26         9.2720  -20.1640   -8.4550 C.3     1  MOL1        0.0780
@<TRIPOS>BOND
     1     6     5    1
     2    11    10    1
     3    11    12   am
     4     5     7   ar
     5     5     4   ar
     6     7     1   ar
     7     9    12    1
     8     9     8    1
     9     4     3   ar
    10    12    13    2
    11    22    23   ar
    12    22    21   ar
    13     1     8    1
    14     1     2   ar
    15    23    24   ar
    16     8    14    1
    17     3     2   ar
    18    21    20   ar
    19    14    15   am
    20    24    32    1
    21    24    19   ar
    22    32    33    1
    23    20    19   ar
    24    20    25    1
    25    26    31    1
    26    26    27    1
    27    26    25    1
    28    31    28    1
    29    19    18    1
    30    29    28    1
    31    27    28    1
    32    15    17    1
    33    15    16    2
    34    28    30    1
    35    18    17    1
