@<TRIPOS>MOLECULE
L3024_0_out.pdbqt
 33 35 0 0 0
SMALL
GASTEIGER

@<TRIPOS>ATOM
      1 C27         5.2670  -20.6890   -8.5390 C.ar    1  MOL1       -0.0240
      2 C28         5.1480  -20.8870   -7.1510 C.ar    1  MOL1       -0.0570
      3 C29         4.0760  -21.6200   -6.6310 C.ar    1  MOL1       -0.0610
      4 C30         3.1150  -22.1620   -7.4890 C.ar    1  MOL1       -0.0480
      5 C31         3.2240  -21.9750   -8.8710 C.ar    1  MOL1        0.0180
      6 Br32        1.9190  -22.7360  -10.0460 Br      1  MOL1       -0.0510
      7 C33         4.2910  -21.2380   -9.3950 C.ar    1  MOL1       -0.0430
      8  C6         6.3890  -19.8340   -9.0880 C.3     1  MOL1        0.0630
      9  C5         7.7460  -20.3560   -8.5830 C.3     1  MOL1        0.0510
     10  C1         9.5420  -22.5520  -11.2520 C.3     1  MOL1        0.0060
     11  N2         9.0780  -21.4070  -10.4830 N.am    1  MOL1       -0.3590
     12  C3         8.1990  -21.5560   -9.3630 C.2     1  MOL1        0.2220
     13  O4         7.7990  -22.7030   -9.0210 O.2     1  MOL1       -0.2750
     14  N7         6.1970  -18.4330   -8.6980 N.am    1  MOL1       -0.3460
     15  C8         6.5200  -17.3420   -9.5640 C.2     1  MOL1        0.2580
     16  O9         6.9990  -17.5600  -10.7080 O.2     1  MOL1       -0.2710
     17 C10         6.2800  -15.9290   -9.1250 C.3     1  MOL1        0.1670
     18 O11         5.3580  -15.2850  -10.0010 O.3     1  MOL1       -0.4800
     19 C12         4.0510  -14.9800   -9.6080 C.ar    1  MOL1        0.1660
     20 C13         3.1220  -14.4320  -10.5220 C.ar    1  MOL1        0.0120
     21 C21         1.7980  -14.2150  -10.1050 C.ar    1  MOL1       -0.0540
     22 C22         1.4140  -14.4920   -8.7930 C.ar    1  MOL1       -0.0580
     23 C23         2.3450  -14.9860   -7.8800 C.ar    1  MOL1       -0.0160
     24 C24         3.6730  -15.2300   -8.2790 C.ar    1  MOL1        0.1610
     25 C14         3.5160  -14.0690  -11.9370 C.3     1  MOL1        0.0280
     26 N15         4.1330  -12.7270  -11.9730 N.3     1  MOL1       -0.2870
     27 C16         3.2590  -11.7120  -11.3610 C.3     1  MOL1        0.0640
     28 C17         3.0490  -10.9930  -12.6790 C.3     1  MOL1        0.2720
     29 F18         3.6060   -9.7260  -12.7150 F       1  MOL1       -0.2040
     30 F19         1.7440  -11.0450  -13.1410 F       1  MOL1       -0.2040
     31 C20         3.9430  -12.0630  -13.2740 C.3     1  MOL1        0.0640
     32 O25         4.6390  -15.7250   -7.3910 O.3     1  MOL1       -0.4930
     33 C26         4.3780  -16.1000   -6.0430 C.3     1  MOL1        0.0780
@<TRIPOS>BOND
     1    31    28    1
     2    31    26    1
     3    30    28    1
     4    29    28    1
     5    28    27    1
     6    26    25    1
     7    26    27    1
     8    25    20    1
     9    10    11    1
    10    16    15    2
    11    20    21   ar
    12    20    19   ar
    13    11    12   am
    14    21    22   ar
    15     6     5    1
    16    18    19    1
    17    18    17    1
    18    19    24   ar
    19    15    17    1
    20    15    14   am
    21     7     5   ar
    22     7     1   ar
    23    12    13    2
    24    12     9    1
    25     8    14    1
    26     8     9    1
    27     8     1    1
    28     5     4   ar
    29    22    23   ar
    30     1     2   ar
    31    24    23   ar
    32    24    32    1
    33     4     3   ar
    34    32    33    1
    35     2     3   ar
