@<TRIPOS>MOLECULE
L3024_0_out.pdbqt
 33 35 0 0 0
SMALL
GASTEIGER

@<TRIPOS>ATOM
      1 C27        15.6860  -18.5480   -0.3880 C.ar    1  MOL1       -0.0240
      2 C28        16.1160  -18.0670    0.8620 C.ar    1  MOL1       -0.0570
      3 C29        15.8210  -18.7750    2.0320 C.ar    1  MOL1       -0.0610
      4 C30        15.0960  -19.9680    1.9660 C.ar    1  MOL1       -0.0480
      5 C31        14.6650  -20.4590    0.7290 C.ar    1  MOL1        0.0180
      6 Br32       13.6920  -22.1040    0.6380 Br      1  MOL1       -0.0510
      7 C33        14.9530  -19.7520   -0.4430 C.ar    1  MOL1       -0.0430
      8  C6        15.9450  -17.7400   -1.6410 C.3     1  MOL1        0.0630
      9  C5        14.6360  -17.0980   -2.1350 C.3     1  MOL1        0.0510
     10  C1        15.3740  -13.6940   -0.3900 C.3     1  MOL1        0.0060
     11  N2        15.4090  -15.1040   -0.7510 N.am    1  MOL1       -0.3590
     12  C3        14.5690  -15.6410   -1.7780 C.2     1  MOL1        0.2220
     13  O4        13.7660  -14.8890   -2.3960 O.2     1  MOL1       -0.2750
     14  N7        16.5280  -18.5910   -2.6840 N.am    1  MOL1       -0.3460
     15  C8        17.3220  -18.0670   -3.7500 C.2     1  MOL1        0.2580
     16  O9        17.5400  -16.8290   -3.8300 O.2     1  MOL1       -0.2710
     17 C10        17.9160  -18.9850   -4.7750 C.3     1  MOL1        0.1670
     18 O11        17.0050  -19.1860   -5.8530 O.3     1  MOL1       -0.4800
     19 C12        17.2830  -18.7490   -7.1510 C.ar    1  MOL1        0.1660
     20 C13        16.4440  -17.8180   -7.8040 C.ar    1  MOL1        0.0120
     21 C21        16.8040  -17.3460   -9.0770 C.ar    1  MOL1       -0.0540
     22 C22        17.9500  -17.8260   -9.7120 C.ar    1  MOL1       -0.0580
     23 C23        18.7500  -18.7820   -9.0860 C.ar    1  MOL1       -0.0160
     24 C24        18.4200  -19.2550   -7.8020 C.ar    1  MOL1        0.1610
     25 C14        15.1660  -17.3150   -7.1700 C.3     1  MOL1        0.0280
     26 N15        15.2730  -15.8730   -6.8660 N.3     1  MOL1       -0.2870
     27 C16        14.7920  -15.5690   -5.5070 C.3     1  MOL1        0.0640
     28 C17        13.6190  -14.7600   -6.0240 C.3     1  MOL1        0.2720
     29 F18        13.7010  -13.4110   -5.7260 F       1  MOL1       -0.2040
     30 F19        12.3860  -15.3240   -5.7430 F       1  MOL1       -0.2040
     31 C20        14.1380  -15.1060   -7.4070 C.3     1  MOL1        0.0640
     32 O25        19.1960  -20.2170   -7.1400 O.3     1  MOL1       -0.4930
     33 C26        19.1290  -21.6170   -7.3880 C.3     1  MOL1        0.0780
@<TRIPOS>BOND
     1    22    23   ar
     2    22    21   ar
     3    23    24   ar
     4    21    20   ar
     5    20    25    1
     6    20    19   ar
     7    24    19   ar
     8    24    32    1
     9    31    26    1
    10    31    28    1
    11    33    32    1
    12    25    26    1
    13    19    18    1
    14    26    27    1
    15    28    30    1
    16    28    29    1
    17    28    27    1
    18    18    17    1
    19    17    15    1
    20    16    15    2
    21    15    14   am
    22    14     8    1
    23    13    12    2
    24     9    12    1
    25     9     8    1
    26    12    11   am
    27     8     1    1
    28    11    10    1
    29     7     1   ar
    30     7     5   ar
    31     1     2   ar
    32     6     5    1
    33     5     4   ar
    34     2     3   ar
    35     4     3   ar
