@<TRIPOS>MOLECULE
L3024_0_out.pdbqt
 33 35 0 0 0
SMALL
GASTEIGER

@<TRIPOS>ATOM
      1 C27        14.6800  -18.5900   -7.0550 C.ar    1  MOL1       -0.0240
      2 C28        15.7970  -19.3500   -6.6640 C.ar    1  MOL1       -0.0570
      3 C29        17.0710  -18.7710   -6.6340 C.ar    1  MOL1       -0.0610
      4 C30        17.2410  -17.4310   -6.9930 C.ar    1  MOL1       -0.0480
      5 C31        16.1370  -16.6640   -7.3810 C.ar    1  MOL1        0.0180
      6 Br32       16.3670  -14.8240   -7.8520 Br      1  MOL1       -0.0510
      7 C33        14.8630  -17.2400   -7.4180 C.ar    1  MOL1       -0.0430
      8  C6        13.3180  -19.2430   -7.1550 C.3     1  MOL1        0.0630
      9  C5        13.3960  -20.4910   -8.0530 C.3     1  MOL1        0.0510
     10  C1        12.3460  -24.1710   -7.3290 C.3     1  MOL1        0.0060
     11  N2        12.7420  -22.9520   -8.0190 N.am    1  MOL1       -0.3590
     12  C3        12.9780  -21.7290   -7.3140 C.2     1  MOL1        0.2220
     13  O4        12.8400  -21.6840   -6.0610 O.2     1  MOL1       -0.2750
     14  N7        12.3340  -18.2900   -7.6790 N.am    1  MOL1       -0.3460
     15  C8        10.9330  -18.4150   -7.4300 C.2     1  MOL1        0.2580
     16  O9        10.4930  -19.3760   -6.7450 O.2     1  MOL1       -0.2710
     17 C10         9.9730  -17.3970   -7.9680 C.3     1  MOL1        0.1670
     18 O11         8.7930  -18.0320   -8.4540 O.3     1  MOL1       -0.4800
     19 C12         8.2420  -17.7200   -9.7000 C.ar    1  MOL1        0.1660
     20 C13         8.6840  -18.3660  -10.8780 C.ar    1  MOL1        0.0120
     21 C21         8.0490  -18.0780  -12.0970 C.ar    1  MOL1       -0.0540
     22 C22         7.0250  -17.1320  -12.1560 C.ar    1  MOL1       -0.0580
     23 C23         6.6250  -16.4600  -11.0020 C.ar    1  MOL1       -0.0160
     24 C24         7.2330  -16.7450   -9.7650 C.ar    1  MOL1        0.1610
     25 C14         9.8260  -19.3580  -10.8610 C.3     1  MOL1        0.0280
     26 N15         9.3080  -20.7410  -10.8450 N.3     1  MOL1       -0.2870
     27 C16         7.9080  -20.7890  -10.3900 C.3     1  MOL1        0.0640
     28 C17         8.2680  -21.5490   -9.1280 C.3     1  MOL1        0.2720
     29 F18         7.7690  -22.8390   -9.0950 F       1  MOL1       -0.2040
     30 F19         8.0480  -20.8320   -7.9640 F       1  MOL1       -0.2040
     31 C20         9.6980  -21.4670   -9.6240 C.3     1  MOL1        0.0640
     32 O25         6.8600  -16.0910   -8.5820 O.3     1  MOL1       -0.4930
     33 C26         5.8230  -16.5300   -7.7120 C.3     1  MOL1        0.0780
@<TRIPOS>BOND
     1    22    21   ar
     2    22    23   ar
     3    21    20   ar
     4    23    24   ar
     5    20    25    1
     6    20    19   ar
     7    25    26    1
     8    26    27    1
     9    26    31    1
    10    27    28    1
    11    24    19   ar
    12    24    32    1
    13    19    18    1
    14    31    28    1
    15    28    29    1
    16    28    30    1
    17    32    33    1
    18    18    17    1
    19     9    12    1
    20     9     8    1
    21    11    10    1
    22    11    12   am
    23    17    15    1
    24     6     5    1
    25    14    15   am
    26    14     8    1
    27    15    16    2
    28     7     5   ar
    29     7     1   ar
    30     5     4   ar
    31    12    13    2
    32     8     1    1
    33     1     2   ar
    34     4     3   ar
    35     2     3   ar
