@<TRIPOS>MOLECULE
L3024_0_out.pdbqt
 33 35 0 0 0
SMALL
GASTEIGER

@<TRIPOS>ATOM
      1 C27         7.4280  -17.2150  -10.4320 C.ar    1  MOL1       -0.0240
      2 C28         7.6340  -17.9090  -11.6380 C.ar    1  MOL1       -0.0570
      3 C29         7.0800  -17.4340  -12.8320 C.ar    1  MOL1       -0.0610
      4 C30         6.3150  -16.2640  -12.8330 C.ar    1  MOL1       -0.0480
      5 C31         6.1050  -15.5630  -11.6400 C.ar    1  MOL1        0.0180
      6 Br32        5.0770  -13.9500  -11.6460 Br      1  MOL1       -0.0510
      7 C33         6.6530  -16.0380  -10.4440 C.ar    1  MOL1       -0.0430
      8  C6         7.9700  -17.7750   -9.1340 C.3     1  MOL1        0.0630
      9  C5         6.8110  -18.0830   -8.1680 C.3     1  MOL1        0.0510
     10  C1         4.7760  -21.3630   -7.6490 C.3     1  MOL1        0.0060
     11  N2         5.2140  -19.9770   -7.5780 N.am    1  MOL1       -0.3590
     12  C3         6.3920  -19.5220   -8.2520 C.2     1  MOL1        0.2220
     13  O4         7.0860  -20.3300   -8.9280 O.2     1  MOL1       -0.2750
     14  N7         8.9110  -16.8290   -8.5260 N.am    1  MOL1       -0.3460
     15  C8        10.0980  -17.2510   -7.8520 C.2     1  MOL1        0.2580
     16  O9        10.3690  -18.4770   -7.7500 O.2     1  MOL1       -0.2710
     17 C10        11.0410  -16.2400   -7.2710 C.3     1  MOL1        0.1670
     18 O11        12.2120  -16.8790   -6.7700 O.3     1  MOL1       -0.4800
     19 C12        13.4910  -16.5390   -7.2180 C.ar    1  MOL1        0.1660
     20 C13        14.1550  -15.3900   -6.7310 C.ar    1  MOL1        0.0120
     21 C21        15.4710  -15.1300   -7.1490 C.ar    1  MOL1       -0.0540
     22 C22        16.1000  -15.9670   -8.0710 C.ar    1  MOL1       -0.0580
     23 C23        15.4240  -17.0720   -8.5890 C.ar    1  MOL1       -0.0160
     24 C24        14.1130  -17.3640   -8.1700 C.ar    1  MOL1        0.1610
     25 C14        13.4870  -14.4310   -5.7710 C.3     1  MOL1        0.0280
     26 N15        13.5760  -14.9390   -4.3870 N.3     1  MOL1       -0.2870
     27 C16        14.2820  -13.9930   -3.5070 C.3     1  MOL1        0.0640
     28 C17        15.4430  -14.9440   -3.2930 C.3     1  MOL1        0.2720
     29 F18        15.5470  -15.4100   -1.9940 F       1  MOL1       -0.2040
     30 F19        16.6390  -14.4920   -3.8250 F       1  MOL1       -0.2040
     31 C20        14.6920  -15.8850   -4.2140 C.3     1  MOL1        0.0640
     32 O25        13.3990  -18.4650   -8.6670 O.3     1  MOL1       -0.4930
     33 C26        13.3850  -18.8650  -10.0330 C.3     1  MOL1        0.0780
@<TRIPOS>BOND
     1     4     3   ar
     2     4     5   ar
     3     3     2   ar
     4     6     5    1
     5     5     7   ar
     6     2     1   ar
     7     7     1   ar
     8     1     8    1
     9    33    32    1
    10     8    14    1
    11     8     9    1
    12    13    12    2
    13    32    24    1
    14    23    24   ar
    15    23    22   ar
    16    14    15   am
    17    12     9    1
    18    12    11   am
    19    24    19   ar
    20    22    21   ar
    21    15    16    2
    22    15    17    1
    23    10    11    1
    24    17    18    1
    25    19    18    1
    26    19    20   ar
    27    21    20   ar
    28    20    25    1
    29    25    26    1
    30    26    31    1
    31    26    27    1
    32    31    28    1
    33    30    28    1
    34    27    28    1
    35    28    29    1
