@<TRIPOS>MOLECULE
L3024_0_out.pdbqt
 33 35 0 0 0
SMALL
GASTEIGER

@<TRIPOS>ATOM
      1 C27         6.8170  -19.0060   -8.6160 C.ar    1  MOL1       -0.0240
      2 C28         6.4510  -17.7070   -8.2190 C.ar    1  MOL1       -0.0570
      3 C29         5.2410  -17.4850   -7.5530 C.ar    1  MOL1       -0.0610
      4 C30         4.3870  -18.5550   -7.2760 C.ar    1  MOL1       -0.0480
      5 C31         4.7400  -19.8530   -7.6620 C.ar    1  MOL1        0.0180
      6 Br32        3.5800  -21.3210   -7.2630 Br      1  MOL1       -0.0510
      7 C33         5.9460  -20.0780   -8.3330 C.ar    1  MOL1       -0.0430
      8  C6         8.0920  -19.2270   -9.4000 C.3     1  MOL1        0.0630
      9  C5         7.8270  -20.1800  -10.5800 C.3     1  MOL1        0.0510
     10  C1         8.8860  -23.8020   -9.6170 C.3     1  MOL1        0.0060
     11  N2         8.1300  -22.5650   -9.7390 N.am    1  MOL1       -0.3590
     12  C3         8.6360  -21.4390  -10.4640 C.2     1  MOL1        0.2220
     13  O4         9.7690  -21.4990  -11.0140 O.2     1  MOL1       -0.2750
     14  N7         9.1390  -19.7670   -8.5270 N.am    1  MOL1       -0.3460
     15  C8        10.2150  -18.9670   -8.0310 C.2     1  MOL1        0.2580
     16  O9        10.3010  -17.7510   -8.3480 O.2     1  MOL1       -0.2710
     17 C10        11.2450  -19.5630   -7.1190 C.3     1  MOL1        0.1670
     18 O11        12.5270  -19.5580   -7.7430 O.3     1  MOL1       -0.4800
     19 C12        13.6940  -19.8800   -7.0440 C.ar    1  MOL1        0.1660
     20 C13        14.4900  -18.8740   -6.4500 C.ar    1  MOL1        0.0120
     21 C21        15.6110  -19.2480   -5.6890 C.ar    1  MOL1       -0.0540
     22 C22        15.9630  -20.5920   -5.5610 C.ar    1  MOL1       -0.0580
     23 C23        15.2040  -21.5790   -6.1900 C.ar    1  MOL1       -0.0160
     24 C24        14.0660  -21.2300   -6.9400 C.ar    1  MOL1        0.1610
     25 C14        14.1710  -17.4050   -6.6120 C.3     1  MOL1        0.0280
     26 N15        14.7330  -16.8910   -7.8770 N.3     1  MOL1       -0.2870
     27 C16        16.2050  -16.9440   -7.8770 C.3     1  MOL1        0.0640
     28 C17        16.3320  -15.4340   -7.9050 C.3     1  MOL1        0.2720
     29 F18        16.8780  -14.9440   -9.0790 F       1  MOL1       -0.2040
     30 F19        16.8980  -14.9000   -6.7580 F       1  MOL1       -0.2040
     31 C20        14.8160  -15.4200   -7.8910 C.3     1  MOL1        0.0640
     32 O25        13.2770  -22.1910   -7.5890 O.3     1  MOL1       -0.4930
     33 C26        12.8220  -23.3990   -6.9880 C.3     1  MOL1        0.0780
@<TRIPOS>BOND
     1    13    12    2
     2     9    12    1
     3     9     8    1
     4    12    11   am
     5    11    10    1
     6     8     1    1
     7     8    14    1
     8    29    28    1
     9     1     7   ar
    10     1     2   ar
    11    14    15   am
    12    16    15    2
    13     7     5   ar
    14     2     3   ar
    15    15    17    1
    16    28    31    1
    17    28    27    1
    18    28    30    1
    19    31    26    1
    20    27    26    1
    21    26    25    1
    22    18    17    1
    23    18    19    1
    24     5     4   ar
    25     5     6    1
    26    32    33    1
    27    32    24    1
    28     3     4   ar
    29    19    24   ar
    30    19    20   ar
    31    24    23   ar
    32    25    20    1
    33    20    21   ar
    34    23    22   ar
    35    21    22   ar
