@<TRIPOS>MOLECULE
L3024_0_out.pdbqt
 33 35 0 0 0
SMALL
GASTEIGER

@<TRIPOS>ATOM
      1 C27        16.7890  -17.8170   -5.0060 C.ar    1  MOL1       -0.0240
      2 C28        15.7060  -17.1610   -4.3920 C.ar    1  MOL1       -0.0570
      3 C29        15.8840  -15.9080   -3.7960 C.ar    1  MOL1       -0.0610
      4 C30        17.1410  -15.2980   -3.8050 C.ar    1  MOL1       -0.0480
      5 C31        18.2260  -15.9380   -4.4150 C.ar    1  MOL1        0.0180
      6 Br32       19.9420  -15.0930   -4.4470 Br      1  MOL1       -0.0510
      7 C33        18.0540  -17.1930   -5.0080 C.ar    1  MOL1       -0.0430
      8  C6        16.6060  -19.2030   -5.5840 C.3     1  MOL1        0.0630
      9  C5        17.9490  -19.9550   -5.5860 C.3     1  MOL1        0.0510
     10  C1        19.5580  -19.9420   -9.1330 C.3     1  MOL1        0.0060
     11  N2        19.1570  -19.5470   -7.7910 N.am    1  MOL1       -0.3590
     12  C3        18.3370  -20.3860   -6.9710 C.2     1  MOL1        0.2220
     13  O4        17.9350  -21.4990   -7.4080 O.2     1  MOL1       -0.2750
     14  N7        16.0600  -19.1180   -6.9430 N.am    1  MOL1       -0.3460
     15  C8        14.7090  -19.4680   -7.2520 C.2     1  MOL1        0.2580
     16  O9        13.9360  -19.8780   -6.3460 O.2     1  MOL1       -0.2710
     17 C10        14.1940  -19.3380   -8.6540 C.3     1  MOL1        0.1670
     18 O11        13.9370  -17.9710   -8.9660 O.3     1  MOL1       -0.4800
     19 C12        13.2940  -17.1140   -8.0700 C.ar    1  MOL1        0.1660
     20 C13        11.9180  -17.2610   -7.7770 C.ar    1  MOL1        0.0120
     21 C21        11.3310  -16.4270   -6.8110 C.ar    1  MOL1       -0.0540
     22 C22        12.0810  -15.4340   -6.1820 C.ar    1  MOL1       -0.0580
     23 C23        13.4260  -15.2590   -6.5090 C.ar    1  MOL1       -0.0160
     24 C24        14.0420  -16.0940   -7.4590 C.ar    1  MOL1        0.1610
     25 C14        11.0600  -18.2900   -8.4780 C.3     1  MOL1        0.0280
     26 N15         9.6290  -18.0250   -8.2290 N.3     1  MOL1       -0.2870
     27 C16         8.8290  -19.2600   -8.2980 C.3     1  MOL1        0.0640
     28 C17         8.0820  -18.7940   -9.5320 C.3     1  MOL1        0.2720
     29 F18         6.7350  -18.5630   -9.3130 F       1  MOL1       -0.2040
     30 F19         8.3450  -19.5520  -10.6620 F       1  MOL1       -0.2040
     31 C20         8.9340  -17.5440   -9.4350 C.3     1  MOL1        0.0640
     32 O25        15.3900  -15.9500   -7.8160 O.3     1  MOL1       -0.4930
     33 C26        16.1850  -14.8080   -7.5160 C.3     1  MOL1        0.0780
@<TRIPOS>BOND
     1    30    28    1
     2    28    31    1
     3    28    29    1
     4    28    27    1
     5    31    26    1
     6    10    11    1
     7    18    17    1
     8    18    19    1
     9    17    15    1
    10    25    26    1
    11    25    20    1
    12    27    26    1
    13    19    20   ar
    14    19    24   ar
    15    32    33    1
    16    32    24    1
    17    11    12   am
    18    20    21   ar
    19    24    23   ar
    20    13    12    2
    21    15    14   am
    22    15    16    2
    23    12     9    1
    24    14     8    1
    25    21    22   ar
    26    23    22   ar
    27     9     8    1
    28     8     1    1
    29     7     1   ar
    30     7     5   ar
    31     1     2   ar
    32     6     5    1
    33     5     4   ar
    34     2     3   ar
    35     4     3   ar
