@<TRIPOS>MOLECULE
L3024_0_out.pdbqt
 33 35 0 0 0
SMALL
GASTEIGER

@<TRIPOS>ATOM
      1 C27         6.7060  -18.2730   -8.3940 C.ar    1  MOL1       -0.0240
      2 C28         6.0960  -17.1170   -7.8750 C.ar    1  MOL1       -0.0570
      3 C29         4.8490  -17.1960   -7.2460 C.ar    1  MOL1       -0.0610
      4 C30         4.1990  -18.4270   -7.1310 C.ar    1  MOL1       -0.0480
      5 C31         4.7960  -19.5860   -7.6400 C.ar    1  MOL1        0.0180
      6 Br32        3.9150  -21.2750   -7.4610 Br      1  MOL1       -0.0510
      7 C33         6.0400  -19.5100   -8.2730 C.ar    1  MOL1       -0.0430
      8  C6         8.0210  -18.1680   -9.1360 C.3     1  MOL1        0.0630
      9  C5         7.8560  -18.6840  -10.5770 C.3     1  MOL1        0.0510
     10  C1         9.2510  -22.3020  -10.9460 C.3     1  MOL1        0.0060
     11  N2         8.3700  -21.1770  -10.6660 N.am    1  MOL1       -0.3590
     12  C3         8.7910  -19.8230  -10.8640 C.2     1  MOL1        0.2220
     13  O4         9.9540  -19.5770  -11.2860 O.2     1  MOL1       -0.2750
     14  N7         9.0630  -18.9240   -8.4330 N.am    1  MOL1       -0.3460
     15  C8        10.2370  -18.3050   -7.9030 C.2     1  MOL1        0.2580
     16  O9        10.4170  -17.0660   -8.0370 O.2     1  MOL1       -0.2710
     17 C10        11.2590  -19.1210   -7.1690 C.3     1  MOL1        0.1670
     18 O11        12.3150  -19.5030   -8.0470 O.3     1  MOL1       -0.4800
     19 C12        13.5650  -19.9090   -7.5700 C.ar    1  MOL1        0.1660
     20 C13        14.5990  -18.9730   -7.3390 C.ar    1  MOL1        0.0120
     21 C21        15.8120  -19.4150   -6.7850 C.ar    1  MOL1       -0.0540
     22 C22        16.0140  -20.7680   -6.5100 C.ar    1  MOL1       -0.0580
     23 C23        15.0100  -21.6970   -6.7860 C.ar    1  MOL1       -0.0160
     24 C24        13.7790  -21.2750   -7.3220 C.ar    1  MOL1        0.1610
     25 C14        14.4360  -17.5070   -7.6750 C.3     1  MOL1        0.0280
     26 N15        14.0920  -16.7360   -6.4620 N.3     1  MOL1       -0.2870
     27 C16        13.1110  -15.6770   -6.7540 C.3     1  MOL1        0.0640
     28 C17        14.1030  -14.5730   -6.4460 C.3     1  MOL1        0.2720
     29 F18        13.7780  -13.8310   -5.3240 F       1  MOL1       -0.2040
     30 F19        14.4420  -13.8040   -7.5480 F       1  MOL1       -0.2040
     31 C20        15.0870  -15.6920   -6.1670 C.3     1  MOL1        0.0640
     32 O25        12.7450  -22.1770   -7.6150 O.3     1  MOL1       -0.4930
     33 C26        12.8440  -23.5900   -7.4710 C.3     1  MOL1        0.0780
@<TRIPOS>BOND
     1    13    12    2
     2    10    11    1
     3    12    11   am
     4    12     9    1
     5     9     8    1
     6     8    14    1
     7     8     1    1
     8    14    15   am
     9     1     7   ar
    10     1     2   ar
    11     7     5   ar
    12    18    19    1
    13    18    17    1
    14    16    15    2
    15    15    17    1
    16     2     3   ar
    17    25    20    1
    18    25    26    1
    19     5     6    1
    20     5     4   ar
    21    32    33    1
    22    32    24    1
    23    19    20   ar
    24    19    24   ar
    25    30    28    1
    26    20    21   ar
    27    24    23   ar
    28     3     4   ar
    29    23    22   ar
    30    21    22   ar
    31    27    26    1
    32    27    28    1
    33    26    31    1
    34    28    31    1
    35    28    29    1
