@<TRIPOS>MOLECULE
L3024_0_out.pdbqt
 33 35 0 0 0
SMALL
GASTEIGER

@<TRIPOS>ATOM
      1 C27         8.9750  -18.5980   -9.9980 C.ar    1  MOL1       -0.0240
      2 C28         9.4410  -18.9660  -11.2740 C.ar    1  MOL1       -0.0570
      3 C29        10.8060  -18.9040  -11.5730 C.ar    1  MOL1       -0.0610
      4 C30        11.7180  -18.4730  -10.6050 C.ar    1  MOL1       -0.0480
      5 C31        11.2670  -18.1070   -9.3320 C.ar    1  MOL1        0.0180
      6 Br32       12.5180  -17.5400   -8.0000 Br      1  MOL1       -0.0510
      7 C33         9.9030  -18.1640   -9.0300 C.ar    1  MOL1       -0.0430
      8  C6         7.4900  -18.5990   -9.7060 C.3     1  MOL1        0.0630
      9  C5         6.9710  -20.0460   -9.6190 C.3     1  MOL1        0.0510
     10  C1         4.4730  -21.6820   -7.1170 C.3     1  MOL1        0.0060
     11  N2         5.4480  -21.4960   -8.1820 N.am    1  MOL1       -0.3590
     12  C3         5.9580  -20.2030   -8.5220 C.2     1  MOL1        0.2220
     13  O4         5.5610  -19.1820   -7.8960 O.2     1  MOL1       -0.2750
     14  N7         6.7670  -17.8530  -10.7410 N.am    1  MOL1       -0.3460
     15  C8         6.8120  -16.4270  -10.8340 C.2     1  MOL1        0.2580
     16  O9         7.4810  -15.7570  -10.0030 O.2     1  MOL1       -0.2710
     17 C10         6.0750  -15.7150  -11.9280 C.3     1  MOL1        0.1670
     18 O11         5.6740  -14.4170  -11.4970 O.3     1  MOL1       -0.4800
     19 C12         4.3290  -14.0510  -11.3980 C.ar    1  MOL1        0.1660
     20 C13         3.5630  -14.3870  -10.2580 C.ar    1  MOL1        0.0120
     21 C21         2.2370  -13.9300  -10.1650 C.ar    1  MOL1       -0.0540
     22 C22         1.6670  -13.1960  -11.2050 C.ar    1  MOL1       -0.0580
     23 C23         2.4090  -12.9090  -12.3500 C.ar    1  MOL1       -0.0160
     24 C24         3.7450  -13.3380  -12.4570 C.ar    1  MOL1        0.1610
     25 C14         4.1300  -15.2260   -9.1350 C.3     1  MOL1        0.0280
     26 N15         3.5810  -14.7880   -7.8360 N.3     1  MOL1       -0.2870
     27 C16         4.5900  -14.8720   -6.7660 C.3     1  MOL1        0.0640
     28 C17         3.8330  -15.9650   -6.0370 C.3     1  MOL1        0.2720
     29 F18         3.3320  -15.5700   -4.8090 F       1  MOL1       -0.2040
     30 F19         4.4970  -17.1800   -6.0080 F       1  MOL1       -0.2040
     31 C20         2.8230  -15.8580   -7.1640 C.3     1  MOL1        0.0640
     32 O25         4.5250  -13.0710  -13.5920 O.3     1  MOL1       -0.4930
     33 C26         4.6270  -11.7960  -14.2180 C.3     1  MOL1        0.0780
@<TRIPOS>BOND
     1    33    32    1
     2    32    24    1
     3    24    23   ar
     4    24    19   ar
     5    23    22   ar
     6    17    18    1
     7    17    15    1
     8     3     2   ar
     9     3     4   ar
    10    18    19    1
    11    19    20   ar
    12     2     1   ar
    13    22    21   ar
    14    15    14   am
    15    15    16    2
    16    14     8    1
    17     4     5   ar
    18    20    21   ar
    19    20    25    1
    20     1     8    1
    21     1     7   ar
    22     8     9    1
    23     9    12    1
    24     5     7   ar
    25     5     6    1
    26    25    26    1
    27    12    11   am
    28    12    13    2
    29    11    10    1
    30    26    31    1
    31    26    27    1
    32    31    28    1
    33    27    28    1
    34    28    30    1
    35    28    29    1
