@<TRIPOS>MOLECULE
L3024_0_out.pdbqt
 33 35 0 0 0
SMALL
GASTEIGER

@<TRIPOS>ATOM
      1 C27        16.5290  -16.0200   -3.9860 C.ar    1  MOL1       -0.0240
      2 C28        17.6370  -15.1820   -3.7630 C.ar    1  MOL1       -0.0570
      3 C29        18.9080  -15.5530   -4.2170 C.ar    1  MOL1       -0.0610
      4 C30        19.0840  -16.7620   -4.8960 C.ar    1  MOL1       -0.0480
      5 C31        17.9900  -17.6030   -5.1260 C.ar    1  MOL1        0.0180
      6 Br32       18.2290  -19.2470   -6.0740 Br      1  MOL1       -0.0510
      7 C33        16.7200  -17.2380   -4.6690 C.ar    1  MOL1       -0.0430
      8  C6        15.1730  -15.6460   -3.4280 C.3     1  MOL1        0.0630
      9  C5        14.9490  -16.3430   -2.0740 C.3     1  MOL1        0.0510
     10  C1        13.8800  -14.8790    1.3730 C.3     1  MOL1        0.0060
     11  N2        14.2270  -15.8100    0.3090 N.am    1  MOL1       -0.3590
     12  C3        14.5860  -15.3580   -1.0010 C.2     1  MOL1        0.2220
     13  O4        14.6030  -14.1240   -1.2620 O.2     1  MOL1       -0.2750
     14  N7        14.1160  -16.0090   -4.3780 N.am    1  MOL1       -0.3460
     15  C8        13.5000  -15.0540   -5.2450 C.2     1  MOL1        0.2580
     16  O9        13.8500  -13.8450   -5.2090 O.2     1  MOL1       -0.2710
     17 C10        12.4410  -15.4840   -6.2160 C.3     1  MOL1        0.1670
     18 O11        12.9660  -15.5250   -7.5410 O.3     1  MOL1       -0.4800
     19 C12        13.7980  -16.5590   -7.9770 C.ar    1  MOL1        0.1660
     20 C13        13.2930  -17.8610   -8.1990 C.ar    1  MOL1        0.0120
     21 C21        14.1480  -18.8500   -8.7130 C.ar    1  MOL1       -0.0540
     22 C22        15.4920  -18.5670   -8.9560 C.ar    1  MOL1       -0.0580
     23 C23        16.0000  -17.2960   -8.6890 C.ar    1  MOL1       -0.0160
     24 C24        15.1580  -16.2830   -8.1930 C.ar    1  MOL1        0.1610
     25 C14        11.8540  -18.2190   -7.8960 C.3     1  MOL1        0.0280
     26 N15        10.9600  -17.6930   -8.9480 N.3     1  MOL1       -0.2870
     27 C16         9.6630  -17.2690   -8.3930 C.3     1  MOL1        0.0640
     28 C17         8.9080  -18.3550   -9.1340 C.3     1  MOL1        0.2720
     29 F18         8.0510  -17.8710  -10.1070 F       1  MOL1       -0.2040
     30 F19         8.3340  -19.3020   -8.3010 F       1  MOL1       -0.2040
     31 C20        10.2630  -18.7700   -9.6730 C.3     1  MOL1        0.0640
     32 O25        15.6300  -14.9930   -7.9110 O.3     1  MOL1       -0.4930
     33 C26        16.9010  -14.7080   -7.3360 C.3     1  MOL1        0.0780
@<TRIPOS>BOND
     1    29    28    1
     2    31    28    1
     3    31    26    1
     4    28    27    1
     5    28    30    1
     6    22    21   ar
     7    22    23   ar
     8    26    27    1
     9    26    25    1
    10    21    20   ar
    11    23    24   ar
    12    20    19   ar
    13    20    25    1
    14    24    19   ar
    15    24    32    1
    16    19    18    1
    17    32    33    1
    18    18    17    1
    19    17    15    1
    20     6     5    1
    21    15    16    2
    22    15    14   am
    23     5     4   ar
    24     5     7   ar
    25     4     3   ar
    26     7     1   ar
    27    14     8    1
    28     3     2   ar
    29     1     2   ar
    30     1     8    1
    31     8     9    1
    32     9    12    1
    33    13    12    2
    34    12    11   am
    35    11    10    1
