@<TRIPOS>MOLECULE
L3024_0_out.pdbqt
 33 35 0 0 0
SMALL
GASTEIGER

@<TRIPOS>ATOM
      1 C27         9.4780  -20.6800   -8.6810 C.ar    1  MOL1       -0.0240
      2 C28         9.6720  -21.8270   -9.4710 C.ar    1  MOL1       -0.0570
      3 C29         8.5920  -22.6580   -9.7890 C.ar    1  MOL1       -0.0610
      4 C30         7.3110  -22.3540   -9.3210 C.ar    1  MOL1       -0.0480
      5 C31         7.1040  -21.2140   -8.5360 C.ar    1  MOL1        0.0180
      6 Br32        5.3460  -20.7860   -7.9140 Br      1  MOL1       -0.0510
      7 C33         8.1810  -20.3830   -8.2120 C.ar    1  MOL1       -0.0430
      8  C6        10.6620  -19.8260   -8.2810 C.3     1  MOL1        0.0630
      9  C5        10.6200  -18.4820   -9.0310 C.3     1  MOL1        0.0510
     10  C1        11.9580  -15.8590   -6.4810 C.3     1  MOL1        0.0060
     11  N2        11.8800  -16.9850   -7.4000 N.am    1  MOL1       -0.3590
     12  C3        10.6660  -17.3200   -8.0810 C.2     1  MOL1        0.2220
     13  O4         9.6230  -16.6370   -7.8880 O.2     1  MOL1       -0.2750
     14  N7        11.9160  -20.5340   -8.5610 N.am    1  MOL1       -0.3460
     15  C8        12.9860  -20.6050   -7.6160 C.2     1  MOL1        0.2580
     16  O9        12.8820  -20.0400   -6.4950 O.2     1  MOL1       -0.2710
     17 C10        14.2370  -21.3650   -7.9440 C.3     1  MOL1        0.1670
     18 O11        15.2180  -20.4930   -8.5000 O.3     1  MOL1       -0.4800
     19 C12        16.5170  -20.4180   -7.9900 C.ar    1  MOL1        0.1660
     20 C13        16.8970  -19.3810   -7.1070 C.ar    1  MOL1        0.0120
     21 C21        18.1890  -19.3880   -6.5570 C.ar    1  MOL1       -0.0540
     22 C22        19.1050  -20.3780   -6.9130 C.ar    1  MOL1       -0.0580
     23 C23        18.7440  -21.3720   -7.8240 C.ar    1  MOL1       -0.0160
     24 C24        17.4490  -21.3970   -8.3730 C.ar    1  MOL1        0.1610
     25 C14        15.9490  -18.2610   -6.7390 C.3     1  MOL1        0.0280
     26 N15        16.6370  -16.9560   -6.8170 N.3     1  MOL1       -0.2870
     27 C16        15.7390  -15.8470   -6.4520 C.3     1  MOL1        0.0640
     28 C17        15.7660  -15.2680   -7.8530 C.3     1  MOL1        0.2720
     29 F18        16.3900  -14.0350   -7.9320 F       1  MOL1       -0.2040
     30 F19        14.5430  -15.3200   -8.5020 F       1  MOL1       -0.2040
     31 C20        16.6780  -16.4300   -8.1930 C.3     1  MOL1        0.0640
     32 O25        17.0470  -22.3770   -9.2910 O.3     1  MOL1       -0.4930
     33 C26        17.9190  -23.3370   -9.8780 C.3     1  MOL1        0.0780
@<TRIPOS>BOND
     1    33    32    1
     2     3     2   ar
     3     3     4   ar
     4     2     1   ar
     5     4     5   ar
     6    32    24    1
     7     9     8    1
     8     9    12    1
     9     1     8    1
    10     1     7   ar
    11    14     8    1
    12    14    15   am
    13     5     7   ar
    14     5     6    1
    15    30    28    1
    16    18    19    1
    17    18    17    1
    18    24    19   ar
    19    24    23   ar
    20    31    28    1
    21    31    26    1
    22    12    13    2
    23    12    11   am
    24    19    20   ar
    25    17    15    1
    26    29    28    1
    27    28    27    1
    28    23    22   ar
    29    15    16    2
    30    11    10    1
    31    20    25    1
    32    20    21   ar
    33    22    21   ar
    34    26    25    1
    35    26    27    1
