@<TRIPOS>MOLECULE
L3024_0_out.pdbqt
 33 35 0 0 0
SMALL
GASTEIGER

@<TRIPOS>ATOM
      1 C27         4.2430  -14.8220   -9.9200 C.ar    1  MOL1       -0.0240
      2 C28         3.0000  -14.4220  -10.4430 C.ar    1  MOL1       -0.0570
      3 C29         1.8720  -14.3590   -9.6170 C.ar    1  MOL1       -0.0610
      4 C30         1.9740  -14.6950   -8.2640 C.ar    1  MOL1       -0.0480
      5 C31         3.2060  -15.0910   -7.7310 C.ar    1  MOL1        0.0180
      6 Br32        3.3490  -15.5290   -5.8740 Br      1  MOL1       -0.0510
      7 C33         4.3340  -15.1600   -8.5550 C.ar    1  MOL1       -0.0430
      8  C6         5.4410  -14.9570  -10.8350 C.3     1  MOL1        0.0630
      9  C5         5.0070  -14.7800  -12.3010 C.3     1  MOL1        0.0510
     10  C1         3.7710  -11.4470  -13.8950 C.3     1  MOL1        0.0060
     11  N2         3.8750  -12.8490  -13.5170 N.am    1  MOL1       -0.3590
     12  C3         4.9340  -13.3290  -12.6820 C.2     1  MOL1        0.2220
     13  O4         5.8140  -12.5320  -12.2570 O.2     1  MOL1       -0.2750
     14  N7         6.0840  -16.2610  -10.6410 N.am    1  MOL1       -0.3460
     15  C8         7.2660  -16.4260   -9.8550 C.2     1  MOL1        0.2580
     16  O9         7.8060  -15.4310   -9.3030 O.2     1  MOL1       -0.2710
     17 C10         7.8680  -17.7870   -9.6680 C.3     1  MOL1        0.1670
     18 O11         7.0690  -18.7790  -10.3070 O.3     1  MOL1       -0.4800
     19 C12         7.3640  -20.1410  -10.2160 C.ar    1  MOL1        0.1660
     20 C13         6.4280  -21.0590   -9.6860 C.ar    1  MOL1        0.0120
     21 C21         6.7360  -22.4290   -9.6860 C.ar    1  MOL1       -0.0540
     22 C22         7.9690  -22.8780  -10.1580 C.ar    1  MOL1       -0.0580
     23 C23         8.9120  -21.9660  -10.6340 C.ar    1  MOL1       -0.0160
     24 C24         8.6180  -20.5900  -10.6620 C.ar    1  MOL1        0.1610
     25 C14         5.1020  -20.6040   -9.1170 C.3     1  MOL1        0.0280
     26 N15         4.3550  -21.7550   -8.5680 N.3     1  MOL1       -0.2870
     27 C16         2.9750  -21.7990   -9.0800 C.3     1  MOL1        0.0640
     28 C17         2.3800  -21.5280   -7.7130 C.3     1  MOL1        0.2720
     29 F18         1.6610  -22.5930   -7.1990 F       1  MOL1       -0.2040
     30 F19         1.7240  -20.3120   -7.6210 F       1  MOL1       -0.2040
     31 C20         3.8150  -21.4770   -7.2260 C.3     1  MOL1        0.0640
     32 O25         9.5380  -19.6410  -11.1310 O.3     1  MOL1       -0.4930
     33 C26        10.8010  -19.3770  -10.5300 C.3     1  MOL1        0.0780
@<TRIPOS>BOND
     1    10    11    1
     2    11    12   am
     3    12     9    1
     4    12    13    2
     5     9     8    1
     6    32    24    1
     7    32    33    1
     8     8    14    1
     9     8     1    1
    10    24    23   ar
    11    24    19   ar
    12    14    15   am
    13    23    22   ar
    14     2     1   ar
    15     2     3   ar
    16    18    19    1
    17    18    17    1
    18    19    20   ar
    19    22    21   ar
    20     1     7   ar
    21    15    17    1
    22    15    16    2
    23    20    21   ar
    24    20    25    1
    25     3     4   ar
    26    25    26    1
    27    27    26    1
    28    27    28    1
    29    26    31    1
    30     7     5   ar
    31     4     5   ar
    32     5     6    1
    33    28    30    1
    34    28    31    1
    35    28    29    1
