@<TRIPOS>MOLECULE
L3024_0_out.pdbqt
 33 35 0 0 0
SMALL
GASTEIGER

@<TRIPOS>ATOM
      1 C27         6.0940  -20.6020   -8.4990 C.ar    1  MOL1       -0.0240
      2 C28         5.7530  -20.6720   -7.1350 C.ar    1  MOL1       -0.0570
      3 C29         4.5720  -21.3050   -6.7330 C.ar    1  MOL1       -0.0610
      4 C30         3.7210  -21.8720   -7.6850 C.ar    1  MOL1       -0.0480
      5 C31         4.0490  -21.8110   -9.0440 C.ar    1  MOL1        0.0180
      6 Br32        2.8940  -22.6060  -10.3450 Br      1  MOL1       -0.0510
      7 C33         5.2270  -21.1750   -9.4510 C.ar    1  MOL1       -0.0430
      8  C6         7.3360  -19.8530   -8.9310 C.3     1  MOL1        0.0630
      9  C5         7.4510  -19.8640  -10.4660 C.3     1  MOL1        0.0510
     10  C1         7.0070  -16.0030  -10.7250 C.3     1  MOL1        0.0060
     11  N2         7.0400  -17.3640  -10.2090 N.am    1  MOL1       -0.3590
     12  C3         7.4170  -18.4740  -11.0310 C.2     1  MOL1        0.2220
     13  O4         7.7280  -18.2890  -12.2390 O.2     1  MOL1       -0.2750
     14  N7         8.5280  -20.4500   -8.3190 N.am    1  MOL1       -0.3460
     15  C8         9.6650  -19.6750   -7.9350 C.2     1  MOL1        0.2580
     16  O9         9.6790  -18.4290   -8.1250 O.2     1  MOL1       -0.2710
     17 C10        10.8480  -20.3320   -7.2890 C.3     1  MOL1        0.1670
     18 O11        12.0120  -20.1690   -8.0960 O.3     1  MOL1       -0.4800
     19 C12        13.2830  -20.5370   -7.6470 C.ar    1  MOL1        0.1660
     20 C13        14.2050  -19.5690   -7.1890 C.ar    1  MOL1        0.0120
     21 C21        15.4420  -19.9900   -6.6730 C.ar    1  MOL1       -0.0540
     22 C22        15.7780  -21.3440   -6.6560 C.ar    1  MOL1       -0.0580
     23 C23        14.8860  -22.2940   -7.1550 C.ar    1  MOL1       -0.0160
     24 C24        13.6330  -21.8970   -7.6590 C.ar    1  MOL1        0.1610
     25 C14        13.8980  -18.0880   -7.2410 C.3     1  MOL1        0.0280
     26 N15        15.1330  -17.2990   -7.0610 N.3     1  MOL1       -0.2870
     27 C16        14.8460  -15.9570   -6.5250 C.3     1  MOL1        0.0640
     28 C17        15.3070  -15.2710   -7.7960 C.3     1  MOL1        0.2720
     29 F18        16.4520  -14.5110   -7.6320 F       1  MOL1       -0.2040
     30 F19        14.2930  -14.6170   -8.4760 F       1  MOL1       -0.2040
     31 C20        15.5780  -16.6690   -8.3160 C.3     1  MOL1        0.0640
     32 O25        12.7100  -22.8200   -8.1700 O.3     1  MOL1       -0.4930
     33 C26        12.1270  -23.8780   -7.4170 C.3     1  MOL1        0.0780
@<TRIPOS>BOND
     1    13    12    2
     2    12     9    1
     3    12    11   am
     4    10    11    1
     5     9     8    1
     6     6     5    1
     7     7     5   ar
     8     7     1   ar
     9     5     4   ar
    10     8     1    1
    11     8    14    1
    12     1     2   ar
    13    30    28    1
    14    14    15   am
    15    31    28    1
    16    31    26    1
    17    32    24    1
    18    32    33    1
    19    16    15    2
    20    18    19    1
    21    18    17    1
    22    15    17    1
    23    28    29    1
    24    28    27    1
    25     4     3   ar
    26    24    19   ar
    27    24    23   ar
    28    19    20   ar
    29    25    20    1
    30    25    26    1
    31    20    21   ar
    32    23    22   ar
    33     2     3   ar
    34    26    27    1
    35    21    22   ar
