@<TRIPOS>MOLECULE
L3024_0_out.pdbqt
 33 35 0 0 0
SMALL
GASTEIGER

@<TRIPOS>ATOM
      1 C27         3.6370  -14.5120  -10.1980 C.ar    1  MOL1       -0.0240
      2 C28         2.2650  -14.2070  -10.2550 C.ar    1  MOL1       -0.0570
      3 C29         1.4530  -14.3870   -9.1290 C.ar    1  MOL1       -0.0610
      4 C30         2.0020  -14.8730   -7.9390 C.ar    1  MOL1       -0.0480
      5 C31         3.3660  -15.1770   -7.8690 C.ar    1  MOL1        0.0180
      6 Br32        4.1200  -15.8210   -6.2330 Br      1  MOL1       -0.0510
      7 C33         4.1800  -15.0030   -8.9930 C.ar    1  MOL1       -0.0430
      8  C6         4.4930  -14.3840  -11.4390 C.3     1  MOL1        0.0630
      9  C5         3.6350  -13.9080  -12.6250 C.3     1  MOL1        0.0510
     10  C1         3.3070  -10.0340  -12.3920 C.3     1  MOL1        0.0060
     11  N2         3.1230  -11.4580  -12.1540 N.am    1  MOL1       -0.3590
     12  C3         3.8390  -12.4470  -12.9020 C.2     1  MOL1        0.2220
     13  O4         4.6520  -12.0940  -13.7990 O.2     1  MOL1       -0.2750
     14  N7         5.1360  -15.6660  -11.7490 N.am    1  MOL1       -0.3460
     15  C8         6.4350  -16.0120  -11.2630 C.2     1  MOL1        0.2580
     16  O9         7.0820  -15.2020  -10.5480 O.2     1  MOL1       -0.2710
     17 C10         7.0350  -17.3470  -11.5880 C.3     1  MOL1        0.1670
     18 O11         6.9940  -18.2020  -10.4480 O.3     1  MOL1       -0.4800
     19 C12         7.9750  -19.1700  -10.2120 C.ar    1  MOL1        0.1660
     20 C13         7.7230  -20.5400  -10.4520 C.ar    1  MOL1        0.0120
     21 C21         8.7620  -21.4690  -10.2770 C.ar    1  MOL1       -0.0540
     22 C22        10.0140  -21.0530   -9.8250 C.ar    1  MOL1       -0.0580
     23 C23        10.2460  -19.7080   -9.5390 C.ar    1  MOL1       -0.0160
     24 C24         9.2260  -18.7560   -9.7270 C.ar    1  MOL1        0.1610
     25 C14         6.3630  -21.0350  -10.8930 C.3     1  MOL1        0.0280
     26 N15         5.8190  -21.9940   -9.9090 N.3     1  MOL1       -0.2870
     27 C16         4.3500  -21.9270   -9.8420 C.3     1  MOL1        0.0640
     28 C17         4.3650  -21.4000   -8.4210 C.3     1  MOL1        0.2720
     29 F18         3.8390  -22.2840   -7.4950 F       1  MOL1       -0.2040
     30 F19         3.8830  -20.1070   -8.3000 F       1  MOL1       -0.2040
     31 C20         5.8760  -21.4710   -8.5330 C.3     1  MOL1        0.0640
     32 O25         9.4180  -17.3940   -9.4510 O.3     1  MOL1       -0.4930
     33 C26         9.5290  -16.8450   -8.1420 C.3     1  MOL1        0.0780
@<TRIPOS>BOND
     1    13    12    2
     2    12     9    1
     3    12    11   am
     4     9     8    1
     5    10    11    1
     6    14     8    1
     7    14    15   am
     8    17    15    1
     9    17    18    1
    10     8     1    1
    11    15    16    2
    12    25    20    1
    13    25    26    1
    14    20    21   ar
    15    20    19   ar
    16    18    19    1
    17    21    22   ar
    18     2     1   ar
    19     2     3   ar
    20    19    24   ar
    21     1     7   ar
    22    26    27    1
    23    26    31    1
    24    27    28    1
    25    22    23   ar
    26    24    23   ar
    27    24    32    1
    28    32    33    1
    29     3     4   ar
    30     7     5   ar
    31    31    28    1
    32    28    30    1
    33    28    29    1
    34     4     5   ar
    35     5     6    1
