@<TRIPOS>MOLECULE
L3024_0_out.pdbqt
 33 35 0 0 0
SMALL
GASTEIGER

@<TRIPOS>ATOM
      1 C27        17.7230  -17.7570   -8.8820 C.ar    1  MOL1       -0.0240
      2 C28        18.6030  -18.8540   -8.9150 C.ar    1  MOL1       -0.0570
      3 C29        19.5080  -19.0040   -9.9710 C.ar    1  MOL1       -0.0610
      4 C30        19.5430  -18.0630  -11.0040 C.ar    1  MOL1       -0.0480
      5 C31        18.6750  -16.9650  -10.9820 C.ar    1  MOL1        0.0180
      6 Br32       18.7390  -15.6650  -12.3840 Br      1  MOL1       -0.0510
      7 C33        17.7660  -16.8150   -9.9300 C.ar    1  MOL1       -0.0430
      8  C6        16.6990  -17.6410   -7.7740 C.3     1  MOL1        0.0630
      9  C5        16.8820  -18.7880   -6.7650 C.3     1  MOL1        0.0510
     10  C1        16.9970  -17.3500   -3.1460 C.3     1  MOL1        0.0060
     11  N2        16.5150  -17.8320   -4.4330 N.am    1  MOL1       -0.3590
     12  C3        17.4110  -18.2870   -5.4520 C.2     1  MOL1        0.2220
     13  O4        18.6560  -18.2730   -5.2520 O.2     1  MOL1       -0.2750
     14  N7        15.3420  -17.6560   -8.3330 N.am    1  MOL1       -0.3460
     15  C8        14.7680  -18.8220   -8.9260 C.2     1  MOL1        0.2580
     16  O9        15.4300  -19.8920   -8.9960 O.2     1  MOL1       -0.2710
     17 C10        13.3670  -18.7910   -9.4580 C.3     1  MOL1        0.1670
     18 O11        12.4250  -18.8950   -8.3930 O.3     1  MOL1       -0.4800
     19 C12        11.2890  -18.0840   -8.3250 C.ar    1  MOL1        0.1660
     20 C13        10.1230  -18.3960   -9.0610 C.ar    1  MOL1        0.0120
     21 C21         8.9780  -17.5980   -8.9020 C.ar    1  MOL1       -0.0540
     22 C22         9.0030  -16.4820   -8.0660 C.ar    1  MOL1       -0.0580
     23 C23        10.1710  -16.1470   -7.3790 C.ar    1  MOL1       -0.0160
     24 C24        11.3240  -16.9430   -7.5070 C.ar    1  MOL1        0.1610
     25 C14        10.0750  -19.5670  -10.0180 C.3     1  MOL1        0.0280
     26 N15         9.1130  -20.5830   -9.5420 N.3     1  MOL1       -0.2870
     27 C16         9.7460  -21.9050   -9.4050 C.3     1  MOL1        0.0640
     28 C17         8.9080  -22.5030  -10.5180 C.3     1  MOL1        0.2720
     29 F18         8.0180  -23.4710  -10.0850 F       1  MOL1       -0.2040
     30 F19         9.6430  -22.8750  -11.6320 F       1  MOL1       -0.2040
     31 C20         8.2900  -21.1240  -10.6370 C.3     1  MOL1        0.0640
     32 O25        12.5170  -16.6400   -6.8350 O.3     1  MOL1       -0.4930
     33 C26        12.8910  -15.3350   -6.4070 C.3     1  MOL1        0.0780
@<TRIPOS>BOND
     1     6     5    1
     2    30    28    1
     3     4     5   ar
     4     4     3   ar
     5     5     7   ar
     6    31    28    1
     7    31    26    1
     8    28    29    1
     9    28    27    1
    10    25    26    1
    11    25    20    1
    12     3     2   ar
    13     7     1   ar
    14    26    27    1
    15    17    15    1
    16    17    18    1
    17    20    21   ar
    18    20    19   ar
    19    16    15    2
    20    15    14   am
    21     2     1   ar
    22    21    22   ar
    23     1     8    1
    24    18    19    1
    25    14     8    1
    26    19    24   ar
    27    22    23   ar
    28     8     9    1
    29    24    23   ar
    30    24    32    1
    31    32    33    1
    32     9    12    1
    33    12    13    2
    34    12    11   am
    35    11    10    1
