@<TRIPOS>MOLECULE
L3024_0_out.pdbqt
 33 35 0 0 0
SMALL
GASTEIGER

@<TRIPOS>ATOM
      1 C27         9.4870  -18.7360   -9.4940 C.ar    1  MOL1       -0.0240
      2 C28         9.2810  -18.5540  -10.8740 C.ar    1  MOL1       -0.0570
      3 C29         8.1690  -17.8410  -11.3350 C.ar    1  MOL1       -0.0610
      4 C30         7.2530  -17.3040  -10.4250 C.ar    1  MOL1       -0.0480
      5 C31         7.4480  -17.4750   -9.0500 C.ar    1  MOL1        0.0180
      6 Br32        6.2060  -16.7220   -7.8060 Br      1  MOL1       -0.0510
      7 C33         8.5560  -18.1920   -8.5860 C.ar    1  MOL1       -0.0430
      8  C6        10.6520  -19.5700   -9.0060 C.3     1  MOL1        0.0630
      9  C5        10.1350  -20.8170   -8.2660 C.3     1  MOL1        0.0510
     10  C1         7.2670  -22.6480  -10.1630 C.3     1  MOL1        0.0060
     11  N2         7.9890  -21.7600   -9.2630 N.am    1  MOL1       -0.3590
     12  C3         9.4190  -21.7520   -9.1970 C.2     1  MOL1        0.2220
     13  O4        10.0900  -22.5320   -9.9270 O.2     1  MOL1       -0.2750
     14  N7        11.5170  -18.7720   -8.1300 N.am    1  MOL1       -0.3460
     15  C8        12.9430  -18.8510   -8.1780 C.2     1  MOL1        0.2580
     16  O9        13.5090  -19.6350   -8.9850 O.2     1  MOL1       -0.2710
     17 C10        13.7800  -17.9930   -7.2780 C.3     1  MOL1        0.1670
     18 O11        14.5370  -18.8010   -6.3800 O.3     1  MOL1       -0.4800
     19 C12        15.8930  -18.5670   -6.1340 C.ar    1  MOL1        0.1660
     20 C13        16.3120  -17.8080   -5.0170 C.ar    1  MOL1        0.0120
     21 C21        17.6870  -17.6630   -4.7640 C.ar    1  MOL1       -0.0540
     22 C22        18.6280  -18.2210   -5.6290 C.ar    1  MOL1       -0.0580
     23 C23        18.2120  -18.9270   -6.7580 C.ar    1  MOL1       -0.0160
     24 C24        16.8400  -19.1020   -7.0220 C.ar    1  MOL1        0.1610
     25 C14        15.3210  -17.1440   -4.0870 C.3     1  MOL1        0.0280
     26 N15        15.4740  -15.6750   -4.1340 N.3     1  MOL1       -0.2870
     27 C16        14.9300  -15.0350   -2.9240 C.3     1  MOL1        0.0640
     28 C17        13.8250  -14.3430   -3.6970 C.3     1  MOL1        0.2720
     29 F18        13.9480  -12.9650   -3.7290 F       1  MOL1       -0.2040
     30 F19        12.5540  -14.7860   -3.3700 F       1  MOL1       -0.2040
     31 C20        14.4060  -15.0300   -4.9180 C.3     1  MOL1        0.0640
     32 O25        16.3810  -19.8030   -8.1450 O.3     1  MOL1       -0.4930
     33 C26        17.2220  -20.4950   -9.0620 C.3     1  MOL1        0.0780
@<TRIPOS>BOND
     1     3     2   ar
     2     3     4   ar
     3     2     1   ar
     4     4     5   ar
     5    10    11    1
     6    13    12    2
     7     1     8    1
     8     1     7   ar
     9    11    12   am
    10    12     9    1
    11    33    32    1
    12     5     7   ar
    13     5     6    1
    14     8     9    1
    15     8    14    1
    16    16    15    2
    17    15    14   am
    18    15    17    1
    19    32    24    1
    20    17    18    1
    21    24    23   ar
    22    24    19   ar
    23    23    22   ar
    24    18    19    1
    25    19    20   ar
    26    22    21   ar
    27    20    21   ar
    28    20    25    1
    29    31    26    1
    30    31    28    1
    31    26    25    1
    32    26    27    1
    33    29    28    1
    34    28    30    1
    35    28    27    1
