@<TRIPOS>MOLECULE
L3024_0_out.pdbqt
 33 35 0 0 0
SMALL
GASTEIGER

@<TRIPOS>ATOM
      1 C27        16.8110  -19.6120   -5.1880 C.ar    1  MOL1       -0.0240
      2 C28        17.8550  -18.6850   -5.3620 C.ar    1  MOL1       -0.0570
      3 C29        18.0420  -17.6480   -4.4410 C.ar    1  MOL1       -0.0610
      4 C30        17.1890  -17.5260   -3.3410 C.ar    1  MOL1       -0.0480
      5 C31        16.1490  -18.4440   -3.1540 C.ar    1  MOL1        0.0180
      6 Br32       14.9960  -18.2890   -1.6350 Br      1  MOL1       -0.0510
      7 C33        15.9560  -19.4780   -4.0760 C.ar    1  MOL1       -0.0430
      8  C6        16.5720  -20.6860   -6.2270 C.3     1  MOL1        0.0630
      9  C5        17.4790  -20.4510   -7.4480 C.3     1  MOL1        0.0510
     10  C1        19.3380  -23.8180   -8.0660 C.3     1  MOL1        0.0060
     11  N2        18.2960  -22.8060   -7.9710 N.am    1  MOL1       -0.3590
     12  C3        18.5750  -21.4740   -7.5260 C.2     1  MOL1        0.2220
     13  O4        19.7490  -21.1510   -7.1970 O.2     1  MOL1       -0.2750
     14  N7        15.1610  -20.7010   -6.6270 N.am    1  MOL1       -0.3460
     15  C8        14.4000  -21.9070   -6.7210 C.2     1  MOL1        0.2580
     16  O9        14.9370  -23.0180   -6.4650 O.2     1  MOL1       -0.2710
     17 C10        12.9530  -21.8630   -7.1090 C.3     1  MOL1        0.1670
     18 O11        12.4340  -20.5440   -6.9520 O.3     1  MOL1       -0.4800
     19 C12        11.8870  -19.8300   -8.0220 C.ar    1  MOL1        0.1660
     20 C13        12.3280  -18.5230   -8.3310 C.ar    1  MOL1        0.0120
     21 C21        11.8070  -17.8730   -9.4620 C.ar    1  MOL1       -0.0540
     22 C22        10.8310  -18.4890  -10.2450 C.ar    1  MOL1       -0.0580
     23 C23        10.3600  -19.7580   -9.9090 C.ar    1  MOL1       -0.0160
     24 C24        10.8810  -20.4370   -8.7920 C.ar    1  MOL1        0.1610
     25 C14        13.3470  -17.8030   -7.4750 C.3     1  MOL1        0.0280
     26 N15        14.2070  -16.9410   -8.3110 N.3     1  MOL1       -0.2870
     27 C16        15.6320  -17.1210   -7.9880 C.3     1  MOL1        0.0640
     28 C17        15.7640  -15.7090   -7.4530 C.3     1  MOL1        0.2720
     29 F18        16.5850  -14.9000   -8.2190 F       1  MOL1       -0.2040
     30 F19        16.0270  -15.6490   -6.0940 F       1  MOL1       -0.2040
     31 C20        14.2930  -15.5670   -7.7890 C.3     1  MOL1        0.0640
     32 O25        10.4350  -21.7130   -8.4200 O.3     1  MOL1       -0.4930
     33 C26        10.0810  -22.7420   -9.3380 C.3     1  MOL1        0.0780
@<TRIPOS>BOND
     1    22    23   ar
     2    22    21   ar
     3    23    24   ar
     4    21    20   ar
     5    33    32    1
     6    24    32    1
     7    24    19   ar
     8    20    19   ar
     9    20    25    1
    10    26    27    1
    11    26    31    1
    12    26    25    1
    13    29    28    1
    14    10    11    1
    15    19    18    1
    16    27    28    1
    17    11    12   am
    18    31    28    1
    19    12     9    1
    20    12    13    2
    21    28    30    1
    22     9     8    1
    23    17    18    1
    24    17    15    1
    25    15    14   am
    26    15    16    2
    27    14     8    1
    28     8     1    1
    29     2     1   ar
    30     2     3   ar
    31     1     7   ar
    32     3     4   ar
    33     7     5   ar
    34     4     5   ar
    35     5     6    1
