@<TRIPOS>MOLECULE
L3024_0_out.pdbqt
 33 35 0 0 0
SMALL
GASTEIGER

@<TRIPOS>ATOM
      1 C27        13.9570  -19.1100   -7.2580 C.ar    1  MOL1       -0.0240
      2 C28        14.5400  -20.1420   -8.0160 C.ar    1  MOL1       -0.0570
      3 C29        15.3380  -21.1100   -7.3960 C.ar    1  MOL1       -0.0610
      4 C30        15.5620  -21.0570   -6.0180 C.ar    1  MOL1       -0.0480
      5 C31        14.9860  -20.0380   -5.2520 C.ar    1  MOL1        0.0180
      6 Br32       15.2750  -19.9790   -3.3620 Br      1  MOL1       -0.0510
      7 C33        14.1910  -19.0650   -5.8680 C.ar    1  MOL1       -0.0430
      8  C6        13.1550  -18.0260   -7.9450 C.3     1  MOL1        0.0630
      9  C5        12.4060  -18.6120   -9.1560 C.3     1  MOL1        0.0510
     10  C1         8.7130  -18.1530  -10.3070 C.3     1  MOL1        0.0060
     11  N2        10.1020  -18.5850  -10.2410 N.am    1  MOL1       -0.3590
     12  C3        10.9810  -18.1400   -9.2030 C.2     1  MOL1        0.2220
     13  O4        10.5620  -17.3480   -8.3150 O.2     1  MOL1       -0.2750
     14  N7        14.0360  -16.9300   -8.3640 N.am    1  MOL1       -0.3460
     15  C8        14.1840  -15.7290   -7.6040 C.2     1  MOL1        0.2580
     16  O9        13.5380  -15.5710   -6.5340 O.2     1  MOL1       -0.2710
     17 C10        15.1180  -14.6510   -8.0650 C.3     1  MOL1        0.1670
     18 O11        16.3080  -14.6530   -7.2800 O.3     1  MOL1       -0.4800
     19 C12        16.9000  -15.8380   -6.8340 C.ar    1  MOL1        0.1660
     20 C13        16.9790  -16.1430   -5.4560 C.ar    1  MOL1        0.0120
     21 C21        17.5110  -17.3800   -5.0570 C.ar    1  MOL1       -0.0540
     22 C22        18.0000  -18.2790   -6.0040 C.ar    1  MOL1       -0.0580
     23 C23        17.9670  -17.9550   -7.3610 C.ar    1  MOL1       -0.0160
     24 C24        17.4210  -16.7300   -7.7860 C.ar    1  MOL1        0.1610
     25 C14        16.5080  -15.1700   -4.3970 C.3     1  MOL1        0.0280
     26 N15        15.8650  -15.8950   -3.2810 N.3     1  MOL1       -0.2870
     27 C16        14.4360  -15.5560   -3.1680 C.3     1  MOL1        0.0640
     28 C17        14.6280  -14.8790   -1.8250 C.3     1  MOL1        0.2720
     29 F18        14.0120  -15.5390   -0.7770 F       1  MOL1       -0.2040
     30 F19        14.3880  -13.5150   -1.8490 F       1  MOL1       -0.2040
     31 C20        16.0940  -15.2340   -1.9850 C.3     1  MOL1        0.0640
     32 O25        17.3700  -16.3660   -9.1390 O.3     1  MOL1       -0.4930
     33 C26        17.8480  -17.1740  -10.2090 C.3     1  MOL1        0.0780
@<TRIPOS>BOND
     1    10    11    1
     2    11    12   am
     3    33    32    1
     4    12     9    1
     5    12    13    2
     6     9     8    1
     7    32    24    1
     8    14     8    1
     9    14    15   am
    10    17    15    1
    11    17    18    1
    12     2     3   ar
    13     2     1   ar
    14     8     1    1
    15    24    23   ar
    16    24    19   ar
    17    15    16    2
    18     3     4   ar
    19    23    22   ar
    20    18    19    1
    21     1     7   ar
    22    19    20   ar
    23     4     5   ar
    24    22    21   ar
    25     7     5   ar
    26    20    21   ar
    27    20    25    1
    28     5     6    1
    29    25    26    1
    30    26    27    1
    31    26    31    1
    32    27    28    1
    33    31    28    1
    34    30    28    1
    35    28    29    1
