@<TRIPOS>MOLECULE
L3024_0_out.pdbqt
 33 35 0 0 0
SMALL
GASTEIGER

@<TRIPOS>ATOM
      1 C27         7.2890  -17.4120  -10.6540 C.ar    1  MOL1       -0.0240
      2 C28         7.5140  -17.8570  -11.9690 C.ar    1  MOL1       -0.0570
      3 C29         6.9550  -17.1710  -13.0530 C.ar    1  MOL1       -0.0610
      4 C30         6.1670  -16.0380  -12.8350 C.ar    1  MOL1       -0.0480
      5 C31         5.9370  -15.5840  -11.5320 C.ar    1  MOL1        0.0180
      6 Br32        4.8760  -14.0200  -11.2350 Br      1  MOL1       -0.0510
      7 C33         6.4900  -16.2700  -10.4450 C.ar    1  MOL1       -0.0430
      8  C6         7.8360  -18.2010   -9.4840 C.3     1  MOL1        0.0630
      9  C5         6.8890  -18.0800   -8.2770 C.3     1  MOL1        0.0510
     10  C1         5.1840  -21.5100   -8.9840 C.3     1  MOL1        0.0060
     11  N2         6.1190  -20.3940   -9.0100 N.am    1  MOL1       -0.3590
     12  C3         5.9010  -19.2090   -8.2370 C.2     1  MOL1        0.2220
     13  O4         4.8740  -19.1080   -7.5110 O.2     1  MOL1       -0.2750
     14  N7         9.1800  -17.7270   -9.1360 N.am    1  MOL1       -0.3460
     15  C8        10.3680  -18.3640   -9.6110 C.2     1  MOL1        0.2580
     16  O9        10.2910  -19.3810  -10.3510 O.2     1  MOL1       -0.2710
     17 C10        11.7170  -17.8220   -9.2460 C.3     1  MOL1        0.1670
     18 O11        12.6890  -18.8650   -9.2410 O.3     1  MOL1       -0.4800
     19 C12        13.4320  -19.1810   -8.1000 C.ar    1  MOL1        0.1660
     20 C13        14.7060  -18.6120   -7.8760 C.ar    1  MOL1        0.0120
     21 C21        15.3830  -18.8960   -6.6790 C.ar    1  MOL1       -0.0540
     22 C22        14.8280  -19.7680   -5.7410 C.ar    1  MOL1       -0.0580
     23 C23        13.5930  -20.3680   -5.9870 C.ar    1  MOL1       -0.0160
     24 C24        12.8870  -20.0820   -7.1710 C.ar    1  MOL1        0.1610
     25 C14        15.3630  -17.7050   -8.8930 C.3     1  MOL1        0.0280
     26 N15        16.8330  -17.8480   -8.8390 N.3     1  MOL1       -0.2870
     27 C16        17.5110  -16.7340   -9.5230 C.3     1  MOL1        0.0640
     28 C17        18.0650  -17.6400  -10.6050 C.3     1  MOL1        0.2720
     29 F18        19.4430  -17.7640  -10.5750 F       1  MOL1       -0.2040
     30 F19        17.5520  -17.3800  -11.8660 F       1  MOL1       -0.2040
     31 C20        17.3420  -18.7580   -9.8800 C.3     1  MOL1        0.0640
     32 O25        11.6440  -20.6650   -7.4560 O.3     1  MOL1       -0.4930
     33 C26        10.4430  -20.3910   -6.7420 C.3     1  MOL1        0.0780
@<TRIPOS>BOND
     1     3     4   ar
     2     3     2   ar
     3     4     5   ar
     4     2     1   ar
     5    30    28    1
     6     5     6    1
     7     5     7   ar
     8     1     7   ar
     9     1     8    1
    10    28    29    1
    11    28    31    1
    12    28    27    1
    13    16    15    2
    14    31    26    1
    15    15    17    1
    16    15    14   am
    17    27    26    1
    18     8    14    1
    19     8     9    1
    20    17    18    1
    21    18    19    1
    22    11    10    1
    23    11    12   am
    24    25    26    1
    25    25    20    1
    26     9    12    1
    27    12    13    2
    28    19    20   ar
    29    19    24   ar
    30    20    21   ar
    31    32    24    1
    32    32    33    1
    33    24    23   ar
    34    21    22   ar
    35    23    22   ar
