@<TRIPOS>MOLECULE
L3024_0_out.pdbqt
 33 35 0 0 0
SMALL
GASTEIGER

@<TRIPOS>ATOM
      1 C27        17.6630  -17.4020   -9.2010 C.ar    1  MOL1       -0.0240
      2 C28        17.9470  -16.6630  -10.3640 C.ar    1  MOL1       -0.0570
      3 C29        18.9430  -17.0920  -11.2490 C.ar    1  MOL1       -0.0610
      4 C30        19.6640  -18.2590  -10.9820 C.ar    1  MOL1       -0.0480
      5 C31        19.3890  -19.0050   -9.8300 C.ar    1  MOL1        0.0180
      6 Br32       20.3610  -20.6140   -9.4760 Br      1  MOL1       -0.0510
      7 C33        18.3980  -18.5770   -8.9410 C.ar    1  MOL1       -0.0430
      8  C6        16.6360  -16.8940   -8.2130 C.3     1  MOL1        0.0630
      9  C5        17.0780  -17.2230   -6.7760 C.3     1  MOL1        0.0510
     10  C1        15.8130  -14.9080   -3.9100 C.3     1  MOL1        0.0060
     11  N2        15.9700  -16.0410   -4.8110 N.am    1  MOL1       -0.3590
     12  C3        16.9330  -16.0350   -5.8690 C.2     1  MOL1        0.2220
     13  O4        17.6720  -15.0280   -6.0460 O.2     1  MOL1       -0.2750
     14  N7        15.3230  -17.4830   -8.4970 N.am    1  MOL1       -0.3460
     15  C8        14.1010  -16.7640   -8.3120 C.2     1  MOL1        0.2580
     16  O9        14.1200  -15.5810   -7.8800 O.2     1  MOL1       -0.2710
     17 C10        12.7870  -17.4050   -8.6420 C.3     1  MOL1        0.1670
     18 O11        12.3500  -18.2320   -7.5660 O.3     1  MOL1       -0.4800
     19 C12        12.0560  -19.5860   -7.7430 C.ar    1  MOL1        0.1660
     20 C13        10.8240  -20.0010   -8.2990 C.ar    1  MOL1        0.0120
     21 C21        10.6030  -21.3680   -8.5330 C.ar    1  MOL1       -0.0540
     22 C22        11.5660  -22.3120   -8.1770 C.ar    1  MOL1       -0.0580
     23 C23        12.7610  -21.9050   -7.5820 C.ar    1  MOL1       -0.0160
     24 C24        13.0130  -20.5390   -7.3560 C.ar    1  MOL1        0.1610
     25 C14         9.7350  -19.0110   -8.6490 C.3     1  MOL1        0.0280
     26 N15         9.0120  -19.4460   -9.8610 N.3     1  MOL1       -0.2870
     27 C16         9.3070  -18.5740  -11.0100 C.3     1  MOL1        0.0640
     28 C17         7.8830  -18.0560  -11.0760 C.3     1  MOL1        0.2720
     29 F18         7.2040  -18.4420  -12.2180 F       1  MOL1       -0.2040
     30 F19         7.7660  -16.7080  -10.7810 F       1  MOL1       -0.2040
     31 C20         7.6230  -18.9570   -9.8850 C.3     1  MOL1        0.0640
     32 O25        14.2000  -20.0890   -6.7610 O.3     1  MOL1       -0.4930
     33 C26        15.1780  -20.9380   -6.1700 C.3     1  MOL1        0.0780
@<TRIPOS>BOND
     1    29    28    1
     2     3     4   ar
     3     3     2   ar
     4    28    27    1
     5    28    30    1
     6    28    31    1
     7    27    26    1
     8     4     5   ar
     9     2     1   ar
    10    31    26    1
    11    26    25    1
    12     5     6    1
    13     5     7   ar
    14     1     7   ar
    15     1     8    1
    16    25    20    1
    17    17    15    1
    18    17    18    1
    19    21    20   ar
    20    21    22   ar
    21    14    15   am
    22    14     8    1
    23    15    16    2
    24    20    19   ar
    25     8     9    1
    26    22    23   ar
    27    19    18    1
    28    19    24   ar
    29    23    24   ar
    30    24    32    1
    31     9    12    1
    32    32    33    1
    33    13    12    2
    34    12    11   am
    35    11    10    1
