@<TRIPOS>MOLECULE
L3024_0_out.pdbqt
 33 35 0 0 0
SMALL
GASTEIGER

@<TRIPOS>ATOM
      1 C27         7.3830  -20.0070   -8.8160 C.ar    1  MOL1       -0.0240
      2 C28         7.1140  -18.6280   -8.7460 C.ar    1  MOL1       -0.0570
      3 C29         5.9560  -18.1640   -8.1130 C.ar    1  MOL1       -0.0610
      4 C30         5.0570  -19.0710   -7.5450 C.ar    1  MOL1       -0.0480
      5 C31         5.3140  -20.4450   -7.6050 C.ar    1  MOL1        0.0180
      6 Br32        4.0930  -21.6840   -6.8080 Br      1  MOL1       -0.0510
      7 C33         6.4680  -20.9120   -8.2420 C.ar    1  MOL1       -0.0430
      8  C6         8.6000  -20.5040   -9.5660 C.3     1  MOL1        0.0630
      9  C5         8.8530  -21.9860   -9.2380 C.3     1  MOL1        0.0510
     10  C1        10.7400  -24.6830  -11.3210 C.3     1  MOL1        0.0060
     11  N2        10.1520  -23.9500  -10.2090 N.am    1  MOL1       -0.3590
     12  C3         9.4570  -22.7140  -10.4040 C.2     1  MOL1        0.2220
     13  O4         9.3450  -22.2270  -11.5620 O.2     1  MOL1       -0.2750
     14  N7         9.7730  -19.6920   -9.2260 N.am    1  MOL1       -0.3460
     15  C8        10.3780  -19.7190   -7.9320 C.2     1  MOL1        0.2580
     16  O9         9.9030  -20.4520   -7.0240 O.2     1  MOL1       -0.2710
     17 C10        11.5930  -18.8890   -7.6450 C.3     1  MOL1        0.1670
     18 O11        12.4330  -19.5440   -6.6970 O.3     1  MOL1       -0.4800
     19 C12        13.7410  -19.9280   -7.0070 C.ar    1  MOL1        0.1660
     20 C13        14.8340  -19.0650   -6.7600 C.ar    1  MOL1        0.0120
     21 C21        16.1380  -19.5230   -7.0130 C.ar    1  MOL1       -0.0540
     22 C22        16.3520  -20.7940   -7.5470 C.ar    1  MOL1       -0.0580
     23 C23        15.2690  -21.6240   -7.8360 C.ar    1  MOL1       -0.0160
     24 C24        13.9540  -21.1950   -7.5730 C.ar    1  MOL1        0.1610
     25 C14        14.6370  -17.6610   -6.2330 C.3     1  MOL1        0.0280
     26 N15        14.9470  -16.6680   -7.2810 N.3     1  MOL1       -0.2870
     27 C16        15.5280  -15.4410   -6.7100 C.3     1  MOL1        0.0640
     28 C17        14.3310  -14.6010   -7.1110 C.3     1  MOL1        0.2720
     29 F18        14.6160  -13.6530   -8.0790 F       1  MOL1       -0.2040
     30 F19        13.6120  -14.1060   -6.0360 F       1  MOL1       -0.2040
     31 C20        13.7620  -15.8880   -7.6760 C.3     1  MOL1        0.0640
     32 O25        12.8390  -21.9990   -7.8500 O.3     1  MOL1       -0.4930
     33 C26        12.8990  -23.3950   -8.1200 C.3     1  MOL1        0.0780
@<TRIPOS>BOND
     1    13    12    2
     2    10    11    1
     3    12    11   am
     4    12     9    1
     5     8     9    1
     6     8    14    1
     7     8     1    1
     8    14    15   am
     9     1     2   ar
    10     1     7   ar
    11     2     3   ar
    12     7     5   ar
    13    33    32    1
    14     3     4   ar
    15    29    28    1
    16    15    17    1
    17    15    16    2
    18    32    24    1
    19    23    24   ar
    20    23    22   ar
    21    31    26    1
    22    31    28    1
    23    17    18    1
    24     5     4   ar
    25     5     6    1
    26    24    19   ar
    27    22    21   ar
    28    26    27    1
    29    26    25    1
    30    28    27    1
    31    28    30    1
    32    21    20   ar
    33    19    20   ar
    34    19    18    1
    35    20    25    1
