@<TRIPOS>MOLECULE
L3024_0_out.pdbqt
 33 35 0 0 0
SMALL
GASTEIGER

@<TRIPOS>ATOM
      1 C27        15.4240  -20.1550   -8.0350 C.ar    1  MOL1       -0.0240
      2 C28        15.1310  -21.3860   -8.6500 C.ar    1  MOL1       -0.0570
      3 C29        16.1580  -22.2820   -8.9650 C.ar    1  MOL1       -0.0610
      4 C30        17.4850  -21.9590   -8.6700 C.ar    1  MOL1       -0.0480
      5 C31        17.7900  -20.7400   -8.0550 C.ar    1  MOL1        0.0180
      6 Br32       19.6050  -20.3080   -7.6320 Br      1  MOL1       -0.0510
      7 C33        16.7670  -19.8390   -7.7440 C.ar    1  MOL1       -0.0430
      8  C6        14.3160  -19.1610   -7.7640 C.3     1  MOL1        0.0630
      9  C5        14.5380  -18.4820   -6.4010 C.3     1  MOL1        0.0510
     10  C1        14.7110  -14.8980   -7.9180 C.3     1  MOL1        0.0060
     11  N2        14.7550  -16.3460   -7.7710 N.am    1  MOL1       -0.3590
     12  C3        14.4950  -16.9860   -6.5170 C.2     1  MOL1        0.2220
     13  O4        14.2250  -16.2930   -5.4980 O.2     1  MOL1       -0.2750
     14  N7        13.0110  -19.8310   -7.8010 N.am    1  MOL1       -0.3460
     15  C8        11.8790  -19.2750   -8.4730 C.2     1  MOL1        0.2580
     16  O9        11.9710  -18.1620   -9.0570 O.2     1  MOL1       -0.2710
     17 C10        10.5760  -20.0140   -8.5020 C.3     1  MOL1        0.1670
     18 O11        10.2700  -20.4360   -9.8290 O.3     1  MOL1       -0.4800
     19 C12         9.0040  -20.9070  -10.1840 C.ar    1  MOL1        0.1660
     20 C13         8.0280  -20.0410  -10.7300 C.ar    1  MOL1        0.0120
     21 C21         6.7960  -20.5720  -11.1460 C.ar    1  MOL1       -0.0540
     22 C22         6.5180  -21.9290  -10.9810 C.ar    1  MOL1       -0.0580
     23 C23         7.4630  -22.7720  -10.3960 C.ar    1  MOL1       -0.0160
     24 C24         8.7120  -22.2670   -9.9890 C.ar    1  MOL1        0.1610
     25 C14         8.2740  -18.5550  -10.8750 C.3     1  MOL1        0.0280
     26 N15         7.3400  -17.7920  -10.0220 N.3     1  MOL1       -0.2870
     27 C16         7.8220  -16.4210   -9.7840 C.3     1  MOL1        0.0640
     28 C17         8.0250  -16.6710   -8.3020 C.3     1  MOL1        0.2720
     29 F18         7.1690  -15.9450   -7.4940 F       1  MOL1       -0.2040
     30 F19         9.3510  -16.6200   -7.9050 F       1  MOL1       -0.2040
     31 C20         7.5370  -18.0780   -8.5900 C.3     1  MOL1        0.0640
     32 O25         9.6880  -23.0810   -9.3970 O.3     1  MOL1       -0.4930
     33 C26        10.3170  -24.1840  -10.0420 C.3     1  MOL1        0.0780
@<TRIPOS>BOND
     1    21    22   ar
     2    21    20   ar
     3    22    23   ar
     4    25    20    1
     5    25    26    1
     6    20    19   ar
     7    23    24   ar
     8    19    24   ar
     9    19    18    1
    10    33    32    1
    11    26    27    1
    12    26    31    1
    13    24    32    1
    14    18    17    1
    15    27    28    1
    16    16    15    2
    17     3     4   ar
    18     3     2   ar
    19     4     5   ar
    20     2     1   ar
    21    31    28    1
    22    17    15    1
    23    15    14   am
    24    28    30    1
    25    28    29    1
    26     5     7   ar
    27     5     6    1
    28     1     8    1
    29     1     7   ar
    30    10    11    1
    31    14     8    1
    32    11    12   am
    33     8     9    1
    34    12     9    1
    35    12    13    2
