@<TRIPOS>MOLECULE
L3024_0_out.pdbqt
 33 35 0 0 0
SMALL
GASTEIGER

@<TRIPOS>ATOM
      1 C27         6.7040  -19.4170   -9.8240 C.ar    1  MOL1       -0.0240
      2 C28         6.7490  -20.3380  -10.8860 C.ar    1  MOL1       -0.0570
      3 C29         6.1290  -21.5870  -10.7670 C.ar    1  MOL1       -0.0610
      4 C30         5.4610  -21.9280   -9.5880 C.ar    1  MOL1       -0.0480
      5 C31         5.4060  -21.0200   -8.5250 C.ar    1  MOL1        0.0180
      6 Br32        4.4720  -21.4800   -6.9200 Br      1  MOL1       -0.0510
      7 C33         6.0280  -19.7730   -8.6390 C.ar    1  MOL1       -0.0430
      8  C6         7.4380  -18.0980   -9.9330 C.3     1  MOL1        0.0630
      9  C5         7.8060  -17.8200  -11.4020 C.3     1  MOL1        0.0510
     10  C1         5.4630  -14.7270  -11.7470 C.3     1  MOL1        0.0060
     11  N2         6.3270  -15.7570  -11.1890 N.am    1  MOL1       -0.3590
     12  C3         6.9100  -16.7780  -12.0060 C.2     1  MOL1        0.2220
     13  O4         6.6750  -16.8070  -13.2450 O.2     1  MOL1       -0.2750
     14  N7         8.6400  -18.1140   -9.0940 N.am    1  MOL1       -0.3460
     15  C8         9.0990  -16.9610   -8.3850 C.2     1  MOL1        0.2580
     16  O9         8.4740  -15.8710   -8.4730 O.2     1  MOL1       -0.2710
     17 C10        10.3200  -17.0390   -7.5190 C.3     1  MOL1        0.1670
     18 O11        11.3920  -17.6620   -8.2230 O.3     1  MOL1       -0.4800
     19 C12        12.5030  -18.1940   -7.5630 C.ar    1  MOL1        0.1660
     20 C13        12.5360  -19.5490   -7.1600 C.ar    1  MOL1        0.0120
     21 C21        13.7030  -20.0610   -6.5710 C.ar    1  MOL1       -0.0540
     22 C22        14.8020  -19.2320   -6.3400 C.ar    1  MOL1       -0.0580
     23 C23        14.7490  -17.8830   -6.6920 C.ar    1  MOL1       -0.0160
     24 C24        13.5970  -17.3530   -7.3020 C.ar    1  MOL1        0.1610
     25 C14        11.3450  -20.4640   -7.3460 C.3     1  MOL1        0.0280
     26 N15        11.3830  -21.0950   -8.6810 N.3     1  MOL1       -0.2870
     27 C16        10.1840  -20.7660   -9.4700 C.3     1  MOL1        0.0640
     28 C17         9.6980  -22.2020   -9.4660 C.3     1  MOL1        0.2720
     29 F18         9.7100  -22.7950  -10.7170 F       1  MOL1       -0.2040
     30 F19         8.5160  -22.3890   -8.7680 F       1  MOL1       -0.2040
     31 C20        10.9370  -22.4980   -8.6440 C.3     1  MOL1        0.0640
     32 O25        13.5040  -16.0030   -7.6700 O.3     1  MOL1       -0.4930
     33 C26        14.6210  -15.1600   -7.9320 C.3     1  MOL1        0.0780
@<TRIPOS>BOND
     1    13    12    2
     2    12     9    1
     3    12    11   am
     4    10    11    1
     5     9     8    1
     6     2     3   ar
     7     2     1   ar
     8     3     4   ar
     9    29    28    1
    10     8     1    1
    11     8    14    1
    12     1     7   ar
    13     4     5   ar
    14    27    28    1
    15    27    26    1
    16    28    30    1
    17    28    31    1
    18    14    15   am
    19    26    31    1
    20    26    25    1
    21     7     5   ar
    22     5     6    1
    23    16    15    2
    24    15    17    1
    25    18    19    1
    26    18    17    1
    27    33    32    1
    28    32    24    1
    29    19    24   ar
    30    19    20   ar
    31    25    20    1
    32    24    23   ar
    33    20    21   ar
    34    23    22   ar
    35    21    22   ar
