@<TRIPOS>MOLECULE
L3024_0_out.pdbqt
 33 35 0 0 0
SMALL
GASTEIGER

@<TRIPOS>ATOM
      1 C27         4.4300  -21.6220   -8.8400 C.ar    1  MOL1       -0.0240
      2 C28         4.1870  -21.7560   -7.4610 C.ar    1  MOL1       -0.0570
      3 C29         2.9410  -22.1980   -7.0020 C.ar    1  MOL1       -0.0610
      4 C30         1.9280  -22.5080   -7.9120 C.ar    1  MOL1       -0.0480
      5 C31         2.1580  -22.3820   -9.2870 C.ar    1  MOL1        0.0180
      6 Br32        0.7770  -22.8280  -10.5340 Br      1  MOL1       -0.0510
      7 C33         3.4000  -21.9360   -9.7500 C.ar    1  MOL1       -0.0430
      8  C6         5.7550  -21.0750   -9.3250 C.3     1  MOL1        0.0630
      9  C5         6.9130  -21.7500   -8.5690 C.3     1  MOL1        0.0510
     10  C1         9.3040  -22.3180  -11.5910 C.3     1  MOL1        0.0060
     11  N2         8.3620  -21.7090  -10.6630 N.am    1  MOL1       -0.3590
     12  C3         7.8770  -22.4100   -9.5130 C.2     1  MOL1        0.2220
     13  O4         8.2590  -23.5890   -9.2830 O.2     1  MOL1       -0.2750
     14  N7         5.8000  -19.6200   -9.1460 N.am    1  MOL1       -0.3460
     15  C8         6.7760  -18.9760   -8.3240 C.2     1  MOL1        0.2580
     16  O9         7.6370  -19.6580   -7.7070 O.2     1  MOL1       -0.2710
     17 C10         6.7930  -17.4820   -8.1960 C.3     1  MOL1        0.1670
     18 O11         7.7230  -16.9140   -9.1150 O.3     1  MOL1       -0.4800
     19 C12         7.6280  -17.1260  -10.4930 C.ar    1  MOL1        0.1660
     20 C13         6.6520  -16.4600  -11.2690 C.ar    1  MOL1        0.0120
     21 C21         6.6430  -16.6420  -12.6620 C.ar    1  MOL1       -0.0540
     22 C22         7.5540  -17.5070  -13.2690 C.ar    1  MOL1       -0.0580
     23 C23         8.4840  -18.2020  -12.4950 C.ar    1  MOL1       -0.0160
     24 C24         8.5250  -18.0200  -11.1000 C.ar    1  MOL1        0.1610
     25 C14         5.6150  -15.5560  -10.6410 C.3     1  MOL1        0.0280
     26 N15         5.2290  -14.4830  -11.5790 N.3     1  MOL1       -0.2870
     27 C16         4.2660  -13.5500  -10.9690 C.3     1  MOL1        0.0640
     28 C17         3.1580  -13.9560  -11.9210 C.3     1  MOL1        0.2720
     29 F18         2.7760  -12.9500  -12.7900 F       1  MOL1       -0.2040
     30 F19         2.0970  -14.5960  -11.3010 F       1  MOL1       -0.2040
     31 C20         4.1750  -14.9130  -12.5130 C.3     1  MOL1        0.0640
     32 O25         9.4430  -18.7000  -10.2870 O.3     1  MOL1       -0.4930
     33 C26        10.8560  -18.5400  -10.3590 C.3     1  MOL1        0.0780
@<TRIPOS>BOND
     1    22    21   ar
     2    22    23   ar
     3    29    28    1
     4    21    20   ar
     5    31    28    1
     6    31    26    1
     7    23    24   ar
     8    28    30    1
     9    28    27    1
    10    10    11    1
    11    26    27    1
    12    26    25    1
    13    20    25    1
    14    20    19   ar
    15    24    19   ar
    16    24    32    1
    17    11    12   am
    18     6     5    1
    19    19    18    1
    20    33    32    1
    21     7     5   ar
    22     7     1   ar
    23    12    13    2
    24    12     9    1
    25     8    14    1
    26     8     1    1
    27     8     9    1
    28     5     4   ar
    29    14    15   am
    30    18    17    1
    31     1     2   ar
    32    15    17    1
    33    15    16    2
    34     4     3   ar
    35     2     3   ar
