@<TRIPOS>MOLECULE
L3024_0_out.pdbqt
 33 35 0 0 0
SMALL
GASTEIGER

@<TRIPOS>ATOM
      1 C27        14.0140  -19.1510   -7.5360 C.ar    1  MOL1       -0.0240
      2 C28        14.5160  -20.2170   -8.3030 C.ar    1  MOL1       -0.0570
      3 C29        15.2740  -21.2270   -7.7010 C.ar    1  MOL1       -0.0610
      4 C30        15.5380  -21.1820   -6.3290 C.ar    1  MOL1       -0.0480
      5 C31        15.0410  -20.1290   -5.5540 C.ar    1  MOL1        0.0180
      6 Br32       15.3840  -20.0800   -3.6720 Br      1  MOL1       -0.0510
      7 C33        14.2880  -19.1140   -6.1530 C.ar    1  MOL1       -0.0430
      8  C6        13.2570  -18.0250   -8.2070 C.3     1  MOL1        0.0630
      9  C5        12.6650  -18.5110   -9.5430 C.3     1  MOL1        0.0510
     10  C1         9.0750  -17.2800   -8.6690 C.3     1  MOL1        0.0060
     11  N2        10.5180  -17.4670   -8.6550 N.am    1  MOL1       -0.3590
     12  C3        11.1730  -18.3460   -9.5760 C.2     1  MOL1        0.2220
     13  O4        10.4990  -18.9890  -10.4260 O.2     1  MOL1       -0.2750
     14  N7        14.1420  -16.8750   -8.4230 N.am    1  MOL1       -0.3460
     15  C8        14.3390  -15.8610   -7.4360 C.2     1  MOL1        0.2580
     16  O9        13.7350  -15.9230   -6.3320 O.2     1  MOL1       -0.2710
     17 C10        15.2760  -14.7200   -7.6970 C.3     1  MOL1        0.1670
     18 O11        16.5850  -15.2050   -7.9840 O.3     1  MOL1       -0.4800
     19 C12        17.1240  -16.3170   -7.3310 C.ar    1  MOL1        0.1660
     20 C13        17.4170  -17.5070   -8.0350 C.ar    1  MOL1        0.0120
     21 C21        18.0300  -18.5730   -7.3550 C.ar    1  MOL1       -0.0540
     22 C22        18.3040  -18.4770   -5.9900 C.ar    1  MOL1       -0.0580
     23 C23        17.9670  -17.3210   -5.2870 C.ar    1  MOL1       -0.0160
     24 C24        17.3710  -16.2330   -5.9510 C.ar    1  MOL1        0.1610
     25 C14        17.0860  -17.6670   -9.5030 C.3     1  MOL1        0.0280
     26 N15        18.3170  -17.8950  -10.2870 N.3     1  MOL1       -0.2870
     27 C16        18.6080  -16.7600  -11.1800 C.3     1  MOL1        0.0640
     28 C17        18.3780  -17.5890  -12.4280 C.3     1  MOL1        0.2720
     29 F18        19.5220  -17.7910  -13.1800 F       1  MOL1       -0.2040
     30 F19        17.2810  -17.1850  -13.1720 F       1  MOL1       -0.2040
     31 C20        18.0730  -18.7290  -11.4760 C.3     1  MOL1        0.0640
     32 O25        17.0160  -15.0530   -5.2800 O.3     1  MOL1       -0.4930
     33 C26        16.2040  -15.0030   -4.1130 C.3     1  MOL1        0.0780
@<TRIPOS>BOND
     1    29    28    1
     2    30    28    1
     3    28    31    1
     4    28    27    1
     5    31    26    1
     6    27    26    1
     7    13    12    2
     8    26    25    1
     9    12     9    1
    10    12    11   am
    11     9     8    1
    12    25    20    1
    13    10    11    1
    14    14     8    1
    15    14    15   am
    16     2     3   ar
    17     2     1   ar
    18     8     1    1
    19    20    21   ar
    20    20    19   ar
    21    18    17    1
    22    18    19    1
    23     3     4   ar
    24    17    15    1
    25     1     7   ar
    26    15    16    2
    27    21    22   ar
    28    19    24   ar
    29     4     5   ar
    30     7     5   ar
    31    22    23   ar
    32    24    23   ar
    33    24    32    1
    34     5     6    1
    35    32    33    1
