@<TRIPOS>MOLECULE
L3024_0_out.pdbqt
 33 35 0 0 0
SMALL
GASTEIGER

@<TRIPOS>ATOM
      1 C27         7.7750  -18.0630   -9.3360 C.ar    1  MOL1       -0.0240
      2 C28         7.7390  -17.3150  -10.5270 C.ar    1  MOL1       -0.0570
      3 C29         6.8390  -16.2530  -10.6680 C.ar    1  MOL1       -0.0610
      4 C30         5.9680  -15.9290   -9.6250 C.ar    1  MOL1       -0.0480
      5 C31         5.9960  -16.6630   -8.4340 C.ar    1  MOL1        0.0180
      6 Br32        4.8180  -16.2050   -6.9980 Br      1  MOL1       -0.0510
      7 C33         6.8910  -17.7290   -8.2910 C.ar    1  MOL1       -0.0430
      8  C6         8.7010  -19.2550   -9.2190 C.3     1  MOL1        0.0630
      9  C5         8.0180  -20.3750   -8.4140 C.3     1  MOL1        0.0510
     10  C1         4.8880  -21.9350  -10.1310 C.3     1  MOL1        0.0060
     11  N2         5.7400  -21.1140   -9.2830 N.am    1  MOL1       -0.3590
     12  C3         7.1660  -21.2450   -9.2930 C.2     1  MOL1        0.2220
     13  O4         7.7180  -22.0930  -10.0460 O.2     1  MOL1       -0.2750
     14  N7         9.9620  -18.8580   -8.5850 N.am    1  MOL1       -0.3460
     15  C8        11.1650  -18.6520   -9.3280 C.2     1  MOL1        0.2580
     16  O9        11.1770  -18.8190  -10.5770 O.2     1  MOL1       -0.2710
     17 C10        12.4220  -18.2210   -8.6330 C.3     1  MOL1        0.1670
     18 O11        12.5650  -18.9060   -7.3910 O.3     1  MOL1       -0.4800
     19 C12        13.7670  -19.5060   -7.0090 C.ar    1  MOL1        0.1660
     20 C13        14.7410  -18.7910   -6.2760 C.ar    1  MOL1        0.0120
     21 C21        15.9010  -19.4570   -5.8440 C.ar    1  MOL1       -0.0540
     22 C22        16.1130  -20.7950   -6.1760 C.ar    1  MOL1       -0.0580
     23 C23        15.1740  -21.4850   -6.9420 C.ar    1  MOL1       -0.0160
     24 C24        13.9950  -20.8450   -7.3690 C.ar    1  MOL1        0.1610
     25 C14        14.5700  -17.3250   -5.9430 C.3     1  MOL1        0.0280
     26 N15        15.7490  -16.5540   -6.3900 N.3     1  MOL1       -0.2870
     27 C16        15.5710  -15.1100   -6.1590 C.3     1  MOL1        0.0640
     28 C17        15.5560  -14.8000   -7.6430 C.3     1  MOL1        0.2720
     29 F18        16.6460  -14.0600   -8.0670 F       1  MOL1       -0.2040
     30 F19        14.3390  -14.3200   -8.0990 F       1  MOL1       -0.2040
     31 C20        15.7260  -16.2940   -7.8400 C.3     1  MOL1        0.0640
     32 O25        13.0270  -21.5020   -8.1410 O.3     1  MOL1       -0.4930
     33 C26        11.9180  -22.2170   -7.6060 C.3     1  MOL1        0.0780
@<TRIPOS>BOND
     1     3     2   ar
     2     3     4   ar
     3    16    15    2
     4     2     1   ar
     5    10    11    1
     6    13    12    2
     7     4     5   ar
     8     1     8    1
     9     1     7   ar
    10    15    17    1
    11    15    14   am
    12    12    11   am
    13    12     9    1
    14     8    14    1
    15     8     9    1
    16    17    18    1
    17     5     7   ar
    18     5     6    1
    19    32    33    1
    20    32    24    1
    21    30    28    1
    22    29    28    1
    23    31    28    1
    24    31    26    1
    25    28    27    1
    26    18    19    1
    27    24    19   ar
    28    24    23   ar
    29    19    20   ar
    30    23    22   ar
    31    26    27    1
    32    26    25    1
    33    20    25    1
    34    20    21   ar
    35    22    21   ar
