@<TRIPOS>MOLECULE
L3024_0_out.pdbqt
 33 35 0 0 0
SMALL
GASTEIGER

@<TRIPOS>ATOM
      1 C27         8.6150  -17.9700   -9.1950 C.ar    1  MOL1       -0.0240
      2 C28         7.8850  -17.1780   -8.2900 C.ar    1  MOL1       -0.0570
      3 C29         6.8530  -16.3500   -8.7470 C.ar    1  MOL1       -0.0610
      4 C30         6.5410  -16.3050  -10.1080 C.ar    1  MOL1       -0.0480
      5 C31         7.2570  -17.0910  -11.0180 C.ar    1  MOL1        0.0180
      6 Br32        6.8140  -17.0460  -12.8790 Br      1  MOL1       -0.0510
      7 C33         8.2920  -17.9160  -10.5660 C.ar    1  MOL1       -0.0430
      8  C6         9.7760  -18.8070   -8.7020 C.3     1  MOL1        0.0630
      9  C5         9.2570  -20.1220   -8.0930 C.3     1  MOL1        0.0510
     10  C1         7.2270  -22.7190  -10.1690 C.3     1  MOL1        0.0060
     11  N2         7.6130  -21.7590   -9.1450 N.am    1  MOL1       -0.3590
     12  C3         8.8920  -21.1160   -9.1580 C.2     1  MOL1        0.2220
     13  O4         9.7230  -21.3780  -10.0710 O.2     1  MOL1       -0.2750
     14  N7        10.5610  -18.0560   -7.7170 N.am    1  MOL1       -0.3460
     15  C8        11.7860  -17.3990   -8.0490 C.2     1  MOL1        0.2580
     16  O9        12.2400  -17.4570   -9.2230 O.2     1  MOL1       -0.2710
     17 C10        12.5360  -16.6230   -7.0090 C.3     1  MOL1        0.1670
     18 O11        13.7530  -17.2860   -6.6720 O.3     1  MOL1       -0.4800
     19 C12        14.9870  -16.6310   -6.7020 C.ar    1  MOL1        0.1660
     20 C13        15.3880  -15.7800   -5.6470 C.ar    1  MOL1        0.0120
     21 C21        16.6700  -15.2050   -5.6800 C.ar    1  MOL1       -0.0540
     22 C22        17.5190  -15.4310   -6.7630 C.ar    1  MOL1       -0.0580
     23 C23        17.1020  -16.2310   -7.8270 C.ar    1  MOL1       -0.0160
     24 C24        15.8300  -16.8340   -7.8060 C.ar    1  MOL1        0.1610
     25 C14        14.4740  -15.4690   -4.4820 C.3     1  MOL1        0.0280
     26 N15        15.0740  -14.4300   -3.6200 N.3     1  MOL1       -0.2870
     27 C16        15.6860  -15.0140   -2.4140 C.3     1  MOL1        0.0640
     28 C17        14.6830  -14.3500   -1.4930 C.3     1  MOL1        0.2720
     29 F18        15.2390  -13.3890   -0.6660 F       1  MOL1       -0.2040
     30 F19        13.8510  -15.2430   -0.8370 F       1  MOL1       -0.2040
     31 C20        14.0730  -13.7780   -2.7580 C.3     1  MOL1        0.0640
     32 O25        15.3720  -17.6440   -8.8560 O.3     1  MOL1       -0.4930
     33 C26        15.9880  -18.8620   -9.2610 C.3     1  MOL1        0.0780
@<TRIPOS>BOND
     1     6     5    1
     2     5     7   ar
     3     5     4   ar
     4     7     1   ar
     5    10    11    1
     6     4     3   ar
     7    13    12    2
     8    33    32    1
     9    16    15    2
    10     1     8    1
    11     1     2   ar
    12    12    11   am
    13    12     9    1
    14    32    24    1
    15     3     2   ar
    16     8     9    1
    17     8    14    1
    18    15    14   am
    19    15    17    1
    20    23    24   ar
    21    23    22   ar
    22    24    19   ar
    23    17    18    1
    24    22    21   ar
    25    19    18    1
    26    19    20   ar
    27    21    20   ar
    28    20    25    1
    29    25    26    1
    30    26    31    1
    31    26    27    1
    32    31    28    1
    33    27    28    1
    34    28    30    1
    35    28    29    1
