@<TRIPOS>MOLECULE
L3024_0_out.pdbqt
 33 35 0 0 0
SMALL
GASTEIGER

@<TRIPOS>ATOM
      1 C27         8.0220  -17.8480   -9.2960 C.ar    1  MOL1       -0.0240
      2 C28         7.8640  -17.1910  -10.5300 C.ar    1  MOL1       -0.0570
      3 C29         6.8130  -16.2870  -10.7210 C.ar    1  MOL1       -0.0610
      4 C30         5.9110  -16.0310   -9.6850 C.ar    1  MOL1       -0.0480
      5 C31         6.0590  -16.6760   -8.4520 C.ar    1  MOL1        0.0180
      6 Br32        4.8360  -16.3080   -7.0260 Br      1  MOL1       -0.0510
      7 C33         7.1050  -17.5840   -8.2590 C.ar    1  MOL1       -0.0430
      8  C6         9.1170  -18.8780   -9.1220 C.3     1  MOL1        0.0630
      9  C5         8.6060  -20.0510   -8.2660 C.3     1  MOL1        0.0510
     10  C1         6.3760  -22.3300  -10.5030 C.3     1  MOL1        0.0060
     11  N2         6.8350  -21.2330   -9.6630 N.am    1  MOL1       -0.3590
     12  C3         8.1590  -21.2020   -9.1200 C.2     1  MOL1        0.2220
     13  O4         8.9630  -22.1440   -9.3590 O.2     1  MOL1       -0.2750
     14  N7        10.2980  -18.2650   -8.5040 N.am    1  MOL1       -0.3460
     15  C8        11.5300  -18.0920   -9.2070 C.2     1  MOL1        0.2580
     16  O9        11.6420  -18.4800  -10.4000 O.2     1  MOL1       -0.2710
     17 C10        12.6990  -17.4340   -8.5360 C.3     1  MOL1        0.1670
     18 O11        13.8200  -18.3140   -8.5120 O.3     1  MOL1       -0.4800
     19 C12        14.2940  -18.8790   -7.3240 C.ar    1  MOL1        0.1660
     20 C13        15.1320  -18.1470   -6.4510 C.ar    1  MOL1        0.0120
     21 C21        15.5200  -18.7250   -5.2300 C.ar    1  MOL1       -0.0540
     22 C22        15.1250  -20.0220   -4.9030 C.ar    1  MOL1       -0.0580
     23 C23        14.3400  -20.7600   -5.7890 C.ar    1  MOL1       -0.0160
     24 C24        13.9220  -20.1960   -7.0090 C.ar    1  MOL1        0.1610
     25 C14        15.6240  -16.7590   -6.7950 C.3     1  MOL1        0.0280
     26 N15        16.9930  -16.8190   -7.3450 N.3     1  MOL1       -0.2870
     27 C16        17.0680  -16.2000   -8.6800 C.3     1  MOL1        0.0640
     28 C17        17.3840  -17.5200   -9.3550 C.3     1  MOL1        0.2720
     29 F18        18.6580  -17.5780   -9.8920 F       1  MOL1       -0.2040
     30 F19        16.3920  -17.9580  -10.2160 F       1  MOL1       -0.2040
     31 C20        17.2860  -18.1220   -7.9670 C.3     1  MOL1        0.0640
     32 O25        13.1340  -20.9040   -7.9270 O.3     1  MOL1       -0.4930
     33 C26        11.9460  -21.6140   -7.5910 C.3     1  MOL1        0.0780
@<TRIPOS>BOND
     1     3     2   ar
     2     3     4   ar
     3     2     1   ar
     4    10    11    1
     5    16    15    2
     6    30    28    1
     7    29    28    1
     8     4     5   ar
     9    11    12   am
    10    13    12    2
    11    28    27    1
    12    28    31    1
    13     1     8    1
    14     1     7   ar
    15    15    17    1
    16    15    14   am
    17     8    14    1
    18     8     9    1
    19    12     9    1
    20    27    26    1
    21    17    18    1
    22    18    19    1
    23     5     7   ar
    24     5     6    1
    25    31    26    1
    26    32    33    1
    27    32    24    1
    28    26    25    1
    29    19    24   ar
    30    19    20   ar
    31    24    23   ar
    32    25    20    1
    33    20    21   ar
    34    23    22   ar
    35    21    22   ar
