@<TRIPOS>MOLECULE
L3024_0_out.pdbqt
 33 35 0 0 0
SMALL
GASTEIGER

@<TRIPOS>ATOM
      1 C27        15.3700  -17.9390   -8.2740 C.ar    1  MOL1       -0.0240
      2 C28        15.8720  -16.6490   -8.0220 C.ar    1  MOL1       -0.0570
      3 C29        17.0700  -16.2290   -8.6090 C.ar    1  MOL1       -0.0610
      4 C30        17.7790  -17.0910   -9.4510 C.ar    1  MOL1       -0.0480
      5 C31        17.2890  -18.3750   -9.7130 C.ar    1  MOL1        0.0180
      6 Br32       18.2480  -19.5460  -10.8830 Br      1  MOL1       -0.0510
      7 C33        16.0940  -18.8010   -9.1230 C.ar    1  MOL1       -0.0430
      8  C6        14.1120  -18.4110   -7.5780 C.3     1  MOL1        0.0630
      9  C5        12.9730  -17.4000   -7.8040 C.3     1  MOL1        0.0510
     10  C1         9.1990  -17.9770   -8.5740 C.3     1  MOL1        0.0060
     11  N2        10.4690  -17.3370   -8.2620 N.am    1  MOL1       -0.3590
     12  C3        11.6770  -18.0910   -8.1160 C.2     1  MOL1        0.2220
     13  O4        11.6620  -19.3450   -8.2530 O.2     1  MOL1       -0.2750
     14  N7        14.3620  -18.5950   -6.1450 N.am    1  MOL1       -0.3460
     15  C8        14.7630  -19.8500   -5.5890 C.2     1  MOL1        0.2580
     16  O9        14.9050  -20.8570   -6.3310 O.2     1  MOL1       -0.2710
     17 C10        15.0320  -19.9760   -4.1190 C.3     1  MOL1        0.1670
     18 O11        16.4300  -19.8890   -3.8580 O.3     1  MOL1       -0.4800
     19 C12        17.1990  -18.8050   -4.2910 C.ar    1  MOL1        0.1660
     20 C13        17.0830  -17.5350   -3.6790 C.ar    1  MOL1        0.0120
     21 C21        17.9310  -16.4950   -4.0930 C.ar    1  MOL1       -0.0540
     22 C22        18.8440  -16.6950   -5.1280 C.ar    1  MOL1       -0.0580
     23 C23        18.9210  -17.9340   -5.7650 C.ar    1  MOL1       -0.0160
     24 C24        18.0960  -18.9970   -5.3540 C.ar    1  MOL1        0.1610
     25 C14        16.0680  -17.2660   -2.5900 C.3     1  MOL1        0.0280
     26 N15        15.7070  -15.8340   -2.5640 N.3     1  MOL1       -0.2870
     27 C16        15.9970  -15.2260   -1.2540 C.3     1  MOL1        0.0640
     28 C17        14.5300  -14.9840   -0.9600 C.3     1  MOL1        0.2720
     29 F18        14.1860  -13.6440   -0.9130 F       1  MOL1       -0.2040
     30 F19        14.0450  -15.7250    0.1060 F       1  MOL1       -0.2040
     31 C20        14.2710  -15.6270   -2.3080 C.3     1  MOL1        0.0640
     32 O25        18.1420  -20.2570   -5.9680 O.3     1  MOL1       -0.4930
     33 C26        18.8800  -20.5510   -7.1500 C.3     1  MOL1        0.0780
@<TRIPOS>BOND
     1     6     5    1
     2     5     4   ar
     3     5     7   ar
     4     4     3   ar
     5     7     1   ar
     6     3     2   ar
     7    10    11    1
     8     1     2   ar
     9     1     8    1
    10    11    12   am
    11    13    12    2
    12    12     9    1
    13     9     8    1
    14     8    14    1
    15    33    32    1
    16    16    15    2
    17    14    15   am
    18    32    24    1
    19    23    24   ar
    20    23    22   ar
    21    15    17    1
    22    24    19   ar
    23    22    21   ar
    24    19    18    1
    25    19    20   ar
    26    17    18    1
    27    21    20   ar
    28    20    25    1
    29    25    26    1
    30    26    31    1
    31    26    27    1
    32    31    28    1
    33    27    28    1
    34    28    29    1
    35    28    30    1
