@<TRIPOS>MOLECULE
L3024_0_out.pdbqt
 33 35 0 0 0
SMALL
GASTEIGER

@<TRIPOS>ATOM
      1 C27        13.8090  -16.9720   -6.7810 C.ar    1  MOL1       -0.0240
      2 C28        13.3250  -15.6520   -6.7120 C.ar    1  MOL1       -0.0570
      3 C29        13.8550  -14.7520   -5.7820 C.ar    1  MOL1       -0.0610
      4 C30        14.8710  -15.1580   -4.9130 C.ar    1  MOL1       -0.0480
      5 C31        15.3640  -16.4670   -4.9730 C.ar    1  MOL1        0.0180
      6 Br32       16.7700  -17.0160   -3.7980 Br      1  MOL1       -0.0510
      7 C33        14.8320  -17.3710   -5.8980 C.ar    1  MOL1       -0.0430
      8  C6        13.1800  -17.9600   -7.7400 C.3     1  MOL1        0.0630
      9  C5        14.1400  -18.2430   -8.9100 C.3     1  MOL1        0.0510
     10  C1        16.8480  -21.0410   -8.9890 C.3     1  MOL1        0.0060
     11  N2        16.1760  -19.7570   -9.1260 N.am    1  MOL1       -0.3590
     12  C3        14.8010  -19.5830   -8.7670 C.2     1  MOL1        0.2220
     13  O4        14.1350  -20.5580   -8.3250 O.2     1  MOL1       -0.2750
     14  N7        11.9000  -17.4430   -8.2360 N.am    1  MOL1       -0.3460
     15  C8        10.6420  -17.9860   -7.8290 C.2     1  MOL1        0.2580
     16  O9        10.5980  -18.9520   -7.0220 O.2     1  MOL1       -0.2710
     17 C10         9.3620  -17.4020   -8.3460 C.3     1  MOL1        0.1670
     18 O11         8.5930  -18.4000   -9.0140 O.3     1  MOL1       -0.4800
     19 C12         7.3540  -18.8290   -8.5300 C.ar    1  MOL1        0.1660
     20 C13         7.1370  -20.1800   -8.1720 C.ar    1  MOL1        0.0120
     21 C21         5.9020  -20.5510   -7.6150 C.ar    1  MOL1       -0.0540
     22 C22         4.8840  -19.6110   -7.4610 C.ar    1  MOL1       -0.0580
     23 C23         5.0830  -18.2900   -7.8610 C.ar    1  MOL1       -0.0160
     24 C24         6.3180  -17.8890   -8.4030 C.ar    1  MOL1        0.1610
     25 C14         8.1990  -21.2380   -8.3740 C.3     1  MOL1        0.0280
     26 N15         8.2180  -21.6880   -9.7810 N.3     1  MOL1       -0.2870
     27 C16         8.3450  -23.1520   -9.8790 C.3     1  MOL1        0.0640
     28 C17         9.7170  -23.0630  -10.5180 C.3     1  MOL1        0.2720
     29 F18         9.7480  -23.5030  -11.8300 F       1  MOL1       -0.2040
     30 F19        10.7340  -23.5770   -9.7300 F       1  MOL1       -0.2040
     31 C20         9.5540  -21.5620  -10.3880 C.3     1  MOL1        0.0640
     32 O25         6.5580  -16.5720   -8.8180 O.3     1  MOL1       -0.4930
     33 C26         6.0380  -15.9960  -10.0120 C.3     1  MOL1        0.0780
@<TRIPOS>BOND
     1    29    28    1
     2    28    31    1
     3    28    27    1
     4    28    30    1
     5    31    26    1
     6    33    32    1
     7    27    26    1
     8    26    25    1
     9    11    10    1
    10    11    12   am
    11    18    19    1
    12    18    17    1
    13     9    12    1
    14     9     8    1
    15    32    24    1
    16    12    13    2
    17    19    24   ar
    18    19    20   ar
    19    24    23   ar
    20    25    20    1
    21    17    15    1
    22    14    15   am
    23    14     8    1
    24    20    21   ar
    25    23    22   ar
    26    15    16    2
    27     8     1    1
    28    21    22   ar
    29     1     2   ar
    30     1     7   ar
    31     2     3   ar
    32     7     5   ar
    33     3     4   ar
    34     5     4   ar
    35     5     6    1
