@<TRIPOS>MOLECULE
L3024_0_out.pdbqt
 33 35 0 0 0
SMALL
GASTEIGER

@<TRIPOS>ATOM
      1 C27         5.3570  -15.6490   -9.2840 C.ar    1  MOL1       -0.0240
      2 C28         5.9430  -16.2420   -8.1510 C.ar    1  MOL1       -0.0570
      3 C29         5.1970  -16.4200   -6.9810 C.ar    1  MOL1       -0.0610
      4 C30         3.8620  -16.0080   -6.9300 C.ar    1  MOL1       -0.0480
      5 C31         3.2670  -15.4200   -8.0510 C.ar    1  MOL1        0.0180
      6 Br32        1.4340  -14.8760   -7.9880 Br      1  MOL1       -0.0510
      7 C33         4.0110  -15.2350   -9.2210 C.ar    1  MOL1       -0.0430
      8  C6         6.1910  -15.3930  -10.5210 C.3     1  MOL1        0.0630
      9  C5         5.2800  -15.2820  -11.7570 C.3     1  MOL1        0.0510
     10  C1         3.1660  -12.1450  -12.6860 C.3     1  MOL1        0.0060
     11  N2         3.5650  -13.5190  -12.4180 N.am    1  MOL1       -0.3590
     12  C3         4.9030  -13.8560  -12.0370 C.2     1  MOL1        0.2220
     13  O4         5.7770  -12.9530  -11.9300 O.2     1  MOL1       -0.2750
     14  N7         7.1760  -16.4650  -10.7000 N.am    1  MOL1       -0.3460
     15  C8         7.2740  -17.2260  -11.9060 C.2     1  MOL1        0.2580
     16  O9         6.4930  -16.9970  -12.8670 O.2     1  MOL1       -0.2710
     17 C10         8.3170  -18.2940  -12.0470 C.3     1  MOL1        0.1670
     18 O11         7.9660  -19.4390  -11.2740 O.3     1  MOL1       -0.4800
     19 C12         8.4850  -19.6590   -9.9960 C.ar    1  MOL1        0.1660
     20 C13         7.6330  -19.8480   -8.8830 C.ar    1  MOL1        0.0120
     21 C21         8.1970  -20.1450   -7.6310 C.ar    1  MOL1       -0.0540
     22 C22         9.5820  -20.2050   -7.4740 C.ar    1  MOL1       -0.0580
     23 C23        10.4210  -19.9690   -8.5630 C.ar    1  MOL1       -0.0160
     24 C24         9.8790  -19.6890   -9.8310 C.ar    1  MOL1        0.1610
     25 C14         6.1290  -19.7380   -9.0030 C.3     1  MOL1        0.0280
     26 N15         5.4690  -20.4730   -7.9060 N.3     1  MOL1       -0.2870
     27 C16         4.8170  -21.7010   -8.3920 C.3     1  MOL1        0.0640
     28 C17         3.4300  -21.1800   -8.0720 C.3     1  MOL1        0.2720
     29 F18         2.7950  -21.8760   -7.0580 F       1  MOL1       -0.2040
     30 F19         2.6410  -20.9720   -9.1910 F       1  MOL1       -0.2040
     31 C20         4.1370  -19.9270   -7.5930 C.3     1  MOL1        0.0640
     32 O25        10.6890  -19.4450  -10.9500 O.3     1  MOL1       -0.4930
     33 C26        11.7840  -18.5350  -10.9690 C.3     1  MOL1        0.0780
@<TRIPOS>BOND
     1    16    15    2
     2    10    11    1
     3    11    12   am
     4    17    15    1
     5    17    18    1
     6    12    13    2
     7    12     9    1
     8    15    14   am
     9     9     8    1
    10    18    19    1
    11    33    32    1
    12    32    24    1
    13    14     8    1
    14     8     1    1
    15    19    24   ar
    16    19    20   ar
    17    24    23   ar
    18     1     7   ar
    19     1     2   ar
    20     7     5   ar
    21    30    28    1
    22    25    20    1
    23    25    26    1
    24    20    21   ar
    25    23    22   ar
    26    27    28    1
    27    27    26    1
    28     2     3   ar
    29    28    31    1
    30    28    29    1
    31     5     6    1
    32     5     4   ar
    33    26    31    1
    34    21    22   ar
    35     3     4   ar
