@<TRIPOS>MOLECULE
L3024_0_out.pdbqt
 33 35 0 0 0
SMALL
GASTEIGER

@<TRIPOS>ATOM
      1 C27        10.7420  -18.3750   -9.2140 C.ar    1  MOL1       -0.0240
      2 C28        10.5650  -18.7890  -10.5470 C.ar    1  MOL1       -0.0570
      3 C29         9.3360  -18.6020  -11.1890 C.ar    1  MOL1       -0.0610
      4 C30         8.2730  -18.0030  -10.5080 C.ar    1  MOL1       -0.0480
      5 C31         8.4360  -17.5840   -9.1830 C.ar    1  MOL1        0.0180
      6 Br32        6.9870  -16.7430   -8.2590 Br      1  MOL1       -0.0510
      7 C33         9.6620  -17.7730   -8.5360 C.ar    1  MOL1       -0.0430
      8  C6        12.0510  -18.6450   -8.5040 C.3     1  MOL1        0.0630
      9  C5        12.0660  -20.0840   -7.9570 C.3     1  MOL1        0.0510
     10  C1        14.8910  -20.9840   -5.4310 C.3     1  MOL1        0.0060
     11  N2        13.5990  -20.6210   -5.9960 N.am    1  MOL1       -0.3590
     12  C3        13.4140  -20.4490   -7.4050 C.2     1  MOL1        0.2220
     13  O4        14.3850  -20.6050   -8.1940 O.2     1  MOL1       -0.2750
     14  N7        12.2490  -17.6790   -7.4190 N.am    1  MOL1       -0.3460
     15  C8        13.1290  -16.5590   -7.5380 C.2     1  MOL1        0.2580
     16  O9        13.7810  -16.3730   -8.6000 O.2     1  MOL1       -0.2710
     17 C10        13.2750  -15.5860   -6.4070 C.3     1  MOL1        0.1670
     18 O11        14.6470  -15.2490   -6.2120 O.3     1  MOL1       -0.4800
     19 C12        15.3900  -15.7560   -5.1430 C.ar    1  MOL1        0.1660
     20 C13        16.2220  -16.8890   -5.3020 C.ar    1  MOL1        0.0120
     21 C21        17.0120  -17.3160   -4.2220 C.ar    1  MOL1       -0.0540
     22 C22        16.9420  -16.6630   -2.9920 C.ar    1  MOL1       -0.0580
     23 C23        16.0830  -15.5770   -2.8220 C.ar    1  MOL1       -0.0160
     24 C24        15.2970  -15.1180   -3.8960 C.ar    1  MOL1        0.1610
     25 C14        16.2840  -17.6550   -6.6050 C.3     1  MOL1        0.0280
     26 N15        17.4660  -17.2440   -7.3890 N.3     1  MOL1       -0.2870
     27 C16        17.0960  -16.3530   -8.5020 C.3     1  MOL1        0.0640
     28 C17        17.5030  -17.3710   -9.5490 C.3     1  MOL1        0.2720
     29 F18        18.5980  -16.9860  -10.3030 F       1  MOL1       -0.2040
     30 F19        16.4430  -17.8490  -10.3020 F       1  MOL1       -0.2040
     31 C20        17.8590  -18.2640   -8.3770 C.3     1  MOL1        0.0640
     32 O25        14.4210  -14.0310   -3.7660 O.3     1  MOL1       -0.4930
     33 C26        13.7490  -13.6760   -2.5620 C.3     1  MOL1        0.0780
@<TRIPOS>BOND
     1     3     2   ar
     2     3     4   ar
     3     2     1   ar
     4     4     5   ar
     5    29    28    1
     6    30    28    1
     7    28    27    1
     8    28    31    1
     9     1     7   ar
    10     1     8    1
    11     5     7   ar
    12     5     6    1
    13    16    15    2
    14     8     9    1
    15     8    14    1
    16    27    26    1
    17    31    26    1
    18    13    12    2
    19     9    12    1
    20    15    14   am
    21    15    17    1
    22    12    11   am
    23    26    25    1
    24    25    20    1
    25    17    18    1
    26    18    19    1
    27    11    10    1
    28    20    19   ar
    29    20    21   ar
    30    19    24   ar
    31    21    22   ar
    32    24    32    1
    33    24    23   ar
    34    32    33    1
    35    22    23   ar
