@<TRIPOS>MOLECULE
L3024_0_out.pdbqt
 33 35 0 0 0
SMALL
GASTEIGER

@<TRIPOS>ATOM
      1 C27         7.7770  -18.0000   -9.3300 C.ar    1  MOL1       -0.0240
      2 C28         7.6850  -17.2240  -10.5000 C.ar    1  MOL1       -0.0570
      3 C29         6.7470  -16.1900  -10.5910 C.ar    1  MOL1       -0.0610
      4 C30         5.8940  -15.9200   -9.5170 C.ar    1  MOL1       -0.0480
      5 C31         5.9780  -16.6820   -8.3470 C.ar    1  MOL1        0.0180
      6 Br32        4.8240  -16.2980   -6.8690 Br      1  MOL1       -0.0510
      7 C33         6.9100  -17.7210   -8.2540 C.ar    1  MOL1       -0.0430
      8  C6         8.7430  -19.1630   -9.2670 C.3     1  MOL1        0.0630
      9  C5         8.0690  -20.3730   -8.5950 C.3     1  MOL1        0.0510
     10  C1         9.5180  -22.9020  -11.1790 C.3     1  MOL1        0.0060
     11  N2         9.2880  -21.6950  -10.3990 N.am    1  MOL1       -0.3590
     12  C3         8.2730  -21.6300   -9.3910 C.2     1  MOL1        0.2220
     13  O4         7.5440  -22.6330   -9.1620 O.2     1  MOL1       -0.2750
     14  N7         9.9560  -18.7780   -8.5380 N.am    1  MOL1       -0.3460
     15  C8        11.2180  -18.5970   -9.1850 C.2     1  MOL1        0.2580
     16  O9        11.3260  -18.7790  -10.4270 O.2     1  MOL1       -0.2710
     17 C10        12.4210  -18.1770   -8.3960 C.3     1  MOL1        0.1670
     18 O11        12.5710  -18.9970   -7.2400 O.3     1  MOL1       -0.4800
     19 C12        13.7850  -19.6120   -6.9190 C.ar    1  MOL1        0.1660
     20 C13        14.8160  -18.8980   -6.2660 C.ar    1  MOL1        0.0120
     21 C21        15.9880  -19.5760   -5.8920 C.ar    1  MOL1       -0.0540
     22 C22        16.1560  -20.9250   -6.2040 C.ar    1  MOL1       -0.0580
     23 C23        15.1580  -21.6150   -6.8930 C.ar    1  MOL1       -0.0160
     24 C24        13.9660  -20.9620   -7.2600 C.ar    1  MOL1        0.1610
     25 C14        14.6920  -17.4220   -5.9600 C.3     1  MOL1        0.0280
     26 N15        15.8480  -16.6830   -6.5070 N.3     1  MOL1       -0.2870
     27 C16        15.7680  -15.2450   -6.1970 C.3     1  MOL1        0.0640
     28 C17        15.5990  -14.8650   -7.6540 C.3     1  MOL1        0.2720
     29 F18        16.6690  -14.1540   -8.1710 F       1  MOL1       -0.2040
     30 F19        14.3640  -14.3110   -7.9470 F       1  MOL1       -0.2040
     31 C20        15.6730  -16.3540   -7.9320 C.3     1  MOL1        0.0640
     32 O25        12.9400  -21.6190   -7.9540 O.3     1  MOL1       -0.4930
     33 C26        12.3050  -22.8140   -7.5120 C.3     1  MOL1        0.0780
@<TRIPOS>BOND
     1    10    11    1
     2     3     2   ar
     3     3     4   ar
     4     2     1   ar
     5    16    15    2
     6    11    12   am
     7     4     5   ar
     8    12    13    2
     9    12     9    1
    10     1     8    1
    11     1     7   ar
    12     8     9    1
    13     8    14    1
    14    15    14   am
    15    15    17    1
    16    17    18    1
    17     5     7   ar
    18     5     6    1
    19    29    28    1
    20    32    33    1
    21    32    24    1
    22    30    28    1
    23    31    28    1
    24    31    26    1
    25    28    27    1
    26    24    19   ar
    27    24    23   ar
    28    18    19    1
    29    19    20   ar
    30    23    22   ar
    31    26    27    1
    32    26    25    1
    33    20    25    1
    34    20    21   ar
    35    22    21   ar
