@<TRIPOS>MOLECULE
L3024_0_out.pdbqt
 33 35 0 0 0
SMALL
GASTEIGER

@<TRIPOS>ATOM
      1 C27         7.9920  -20.0280   -9.7590 C.ar    1  MOL1       -0.0240
      2 C28         8.8090  -20.9740  -10.4040 C.ar    1  MOL1       -0.0570
      3 C29         8.2700  -22.1830  -10.8570 C.ar    1  MOL1       -0.0610
      4 C30         6.9130  -22.4590  -10.6720 C.ar    1  MOL1       -0.0480
      5 C31         6.0880  -21.5240  -10.0360 C.ar    1  MOL1        0.0180
      6 Br32        4.2250  -21.8930   -9.8030 Br      1  MOL1       -0.0510
      7 C33         6.6240  -20.3170   -9.5770 C.ar    1  MOL1       -0.0430
      8  C6         8.5970  -18.7550   -9.2080 C.3     1  MOL1        0.0630
      9  C5         7.7460  -17.5420   -9.6250 C.3     1  MOL1        0.0510
     10  C1         5.3130  -16.2490   -6.8730 C.3     1  MOL1        0.0060
     11  N2         5.8510  -16.9460   -8.0320 N.am    1  MOL1       -0.3590
     12  C3         7.2190  -16.8020   -8.4300 C.2     1  MOL1        0.2220
     13  O4         7.9930  -16.0520   -7.7750 O.2     1  MOL1       -0.2750
     14  N7         9.9780  -18.6040   -9.6780 N.am    1  MOL1       -0.3460
     15  C8        11.0530  -18.2480   -8.8060 C.2     1  MOL1        0.2580
     16  O9        10.8360  -18.0410   -7.5820 O.2     1  MOL1       -0.2710
     17 C10        12.4520  -18.1320   -9.3340 C.3     1  MOL1        0.1670
     18 O11        13.3840  -18.0340   -8.2600 O.3     1  MOL1       -0.4800
     19 C12        14.7420  -17.7880   -8.4770 C.ar    1  MOL1        0.1660
     20 C13        15.6180  -18.8230   -8.8790 C.ar    1  MOL1        0.0120
     21 C21        16.9580  -18.5150   -9.1630 C.ar    1  MOL1       -0.0540
     22 C22        17.4350  -17.2140   -9.0050 C.ar    1  MOL1       -0.0580
     23 C23        16.5810  -16.2040   -8.5610 C.ar    1  MOL1       -0.0160
     24 C24        15.2290  -16.4840   -8.2890 C.ar    1  MOL1        0.1610
     25 C14        15.1500  -20.2560   -9.0100 C.3     1  MOL1        0.0280
     26 N15        16.0210  -21.1560   -8.2270 N.3     1  MOL1       -0.2870
     27 C16        15.5180  -22.5400   -8.2360 C.3     1  MOL1        0.0640
     28 C17        15.2200  -22.5180   -6.7490 C.3     1  MOL1        0.2720
     29 F18        16.0170  -23.3740   -6.0100 F       1  MOL1       -0.2040
     30 F19        13.8700  -22.6090   -6.4500 F       1  MOL1       -0.2040
     31 C20        15.7340  -21.0920   -6.7840 C.3     1  MOL1        0.0640
     32 O25        14.3390  -15.4980   -7.8390 O.3     1  MOL1       -0.4930
     33 C26        14.6220  -14.1030   -7.8270 C.3     1  MOL1        0.0780
@<TRIPOS>BOND
     1     3     4   ar
     2     3     2   ar
     3     4     5   ar
     4     2     1   ar
     5     5     6    1
     6     5     7   ar
     7     1     7   ar
     8     1     8    1
     9    14     8    1
    10    14    15   am
    11     9     8    1
    12     9    12    1
    13    17    15    1
    14    17    18    1
    15    21    22   ar
    16    21    20   ar
    17    25    20    1
    18    25    26    1
    19    22    23   ar
    20    20    19   ar
    21    15    16    2
    22    23    24   ar
    23    19    24   ar
    24    19    18    1
    25    12    11   am
    26    12    13    2
    27    24    32    1
    28    27    26    1
    29    27    28    1
    30    26    31    1
    31    11    10    1
    32    32    33    1
    33    31    28    1
    34    28    30    1
    35    28    29    1
