@<TRIPOS>MOLECULE
L3024_0_out.pdbqt
 33 35 0 0 0
SMALL
GASTEIGER

@<TRIPOS>ATOM
      1 C27        15.4730  -17.7510   -7.6780 C.ar    1  MOL1       -0.0240
      2 C28        16.5170  -17.1620   -8.4140 C.ar    1  MOL1       -0.0570
      3 C29        16.7250  -15.7790   -8.3630 C.ar    1  MOL1       -0.0610
      4 C30        15.8950  -14.9730   -7.5800 C.ar    1  MOL1       -0.0480
      5 C31        14.8550  -15.5470   -6.8410 C.ar    1  MOL1        0.0180
      6 Br32       13.7320  -14.4450   -5.7520 Br      1  MOL1       -0.0510
      7 C33        14.6400  -16.9280   -6.8930 C.ar    1  MOL1       -0.0430
      8  C6        15.2090  -19.2370   -7.7940 C.3     1  MOL1        0.0630
      9  C5        15.8640  -19.7900   -9.0730 C.3     1  MOL1        0.0510
     10  C1        18.8520  -21.6050   -7.3550 C.3     1  MOL1        0.0060
     11  N2        17.8400  -20.6150   -7.6930 N.am    1  MOL1       -0.3590
     12  C3        16.9030  -20.8260   -8.7550 C.2     1  MOL1        0.2220
     13  O4        16.9430  -21.8900   -9.4310 O.2     1  MOL1       -0.2750
     14  N7        13.7660  -19.4980   -7.7990 N.am    1  MOL1       -0.3460
     15  C8        13.1980  -20.6900   -7.2520 C.2     1  MOL1        0.2580
     16  O9        13.9410  -21.5740   -6.7480 O.2     1  MOL1       -0.2710
     17 C10        11.7130  -20.8950   -7.2590 C.3     1  MOL1        0.1670
     18 O11        11.2230  -20.9440   -8.5970 O.3     1  MOL1       -0.4800
     19 C12        10.0280  -21.5910   -8.9250 C.ar    1  MOL1        0.1660
     20 C13         8.7870  -20.9180   -8.8490 C.ar    1  MOL1        0.0120
     21 C21         7.6210  -21.5820   -9.2640 C.ar    1  MOL1       -0.0540
     22 C22         7.6770  -22.9060   -9.7010 C.ar    1  MOL1       -0.0580
     23 C23         8.8960  -23.5840   -9.7270 C.ar    1  MOL1       -0.0160
     24 C24        10.0800  -22.9340   -9.3350 C.ar    1  MOL1        0.1610
     25 C14         8.6800  -19.5010   -8.3310 C.3     1  MOL1        0.0280
     26 N15         8.6470  -18.5420   -9.4550 N.3     1  MOL1       -0.2870
     27 C16         9.1000  -17.2040   -9.0390 C.3     1  MOL1        0.0640
     28 C17         7.7310  -16.5910   -9.2610 C.3     1  MOL1        0.2720
     29 F18         7.6950  -15.6760  -10.2990 F       1  MOL1       -0.2040
     30 F19         7.1240  -16.1460   -8.0990 F       1  MOL1       -0.2040
     31 C20         7.3000  -17.9860   -9.6700 C.3     1  MOL1        0.0640
     32 O25        11.3250  -23.5800   -9.3460 O.3     1  MOL1       -0.4930
     33 C26        11.8060  -24.4190   -8.3010 C.3     1  MOL1        0.0780
@<TRIPOS>BOND
     1    29    28    1
     2    23    22   ar
     3    23    24   ar
     4    22    21   ar
     5    31    26    1
     6    31    28    1
     7    26    27    1
     8    26    25    1
     9    13    12    2
    10    32    24    1
    11    32    33    1
    12    24    19   ar
    13    21    20   ar
    14    28    27    1
    15    28    30    1
    16     9    12    1
    17     9     8    1
    18    19    20   ar
    19    19    18    1
    20    20    25    1
    21    12    11   am
    22    18    17    1
    23     2     3   ar
    24     2     1   ar
    25     3     4   ar
    26    14     8    1
    27    14    15   am
    28     8     1    1
    29    11    10    1
    30     1     7   ar
    31     4     5   ar
    32    17    15    1
    33    15    16    2
    34     7     5   ar
    35     5     6    1
