@<TRIPOS>MOLECULE
L3024_0_out.pdbqt
 33 35 0 0 0
SMALL
GASTEIGER

@<TRIPOS>ATOM
      1 C27         7.2750  -17.5900  -10.5400 C.ar    1  MOL1       -0.0240
      2 C28         7.5230  -18.0490  -11.8460 C.ar    1  MOL1       -0.0570
      3 C29         7.0410  -17.3380  -12.9500 C.ar    1  MOL1       -0.0610
      4 C30         6.3070  -16.1640  -12.7620 C.ar    1  MOL1       -0.0480
      5 C31         6.0560  -15.6940  -11.4680 C.ar    1  MOL1        0.0180
      6 Br32        5.0700  -14.0750  -11.2120 Br      1  MOL1       -0.0510
      7 C33         6.5320  -16.4050  -10.3620 C.ar    1  MOL1       -0.0430
      8  C6         7.7370  -18.4030   -9.3510 C.3     1  MOL1        0.0630
      9  C5         6.6330  -18.4460   -8.2790 C.3     1  MOL1        0.0510
     10  C1         4.3790  -21.4390   -7.2140 C.3     1  MOL1        0.0060
     11  N2         4.8710  -20.0900   -7.4550 N.am    1  MOL1       -0.3590
     12  C3         6.1580  -19.8490   -8.0340 C.2     1  MOL1        0.2220
     13  O4         6.9040  -20.8180   -8.3440 O.2     1  MOL1       -0.2750
     14  N7         8.9720  -17.8370   -8.7970 N.am    1  MOL1       -0.3460
     15  C8        10.2690  -18.2130   -9.2650 C.2     1  MOL1        0.2580
     16  O9        10.3890  -19.0700  -10.1810 O.2     1  MOL1       -0.2710
     17 C10        11.4980  -17.5830   -8.6820 C.3     1  MOL1        0.1670
     18 O11        11.9830  -18.3570   -7.5870 O.3     1  MOL1       -0.4800
     19 C12        13.0230  -19.2790   -7.7340 C.ar    1  MOL1        0.1660
     20 C13        14.3650  -18.8530   -7.8620 C.ar    1  MOL1        0.0120
     21 C21        15.3860  -19.8160   -7.9280 C.ar    1  MOL1       -0.0540
     22 C22        15.0780  -21.1760   -7.9170 C.ar    1  MOL1       -0.0580
     23 C23        13.7500  -21.5940   -7.8420 C.ar    1  MOL1       -0.0160
     24 C24        12.7110  -20.6480   -7.7540 C.ar    1  MOL1        0.1610
     25 C14        14.7330  -17.3880   -7.9310 C.3     1  MOL1        0.0280
     26 N15        15.8910  -17.1050   -7.0580 N.3     1  MOL1       -0.2870
     27 C16        15.7340  -15.8230   -6.3490 C.3     1  MOL1        0.0640
     28 C17        16.8980  -15.1900   -7.0850 C.3     1  MOL1        0.2720
     29 F18        17.9800  -14.9020   -6.2710 F       1  MOL1       -0.2040
     30 F19        16.5290  -14.1470   -7.9190 F       1  MOL1       -0.2040
     31 C20        17.0190  -16.5200   -7.8030 C.3     1  MOL1        0.0640
     32 O25        11.3630  -21.0260   -7.6780 O.3     1  MOL1       -0.4930
     33 C26        10.7370  -21.9600   -8.5530 C.3     1  MOL1        0.0780
@<TRIPOS>BOND
     1     3     4   ar
     2     3     2   ar
     3     4     5   ar
     4     2     1   ar
     5     5     6    1
     6     5     7   ar
     7     1     7   ar
     8     1     8    1
     9    16    15    2
    10     8    14    1
    11     8     9    1
    12    15    14   am
    13    15    17    1
    14    17    18    1
    15    33    32    1
    16    13    12    2
    17     9    12    1
    18    12    11   am
    19    25    20    1
    20    25    26    1
    21    21    22   ar
    22    21    20   ar
    23    30    28    1
    24    22    23   ar
    25    20    19   ar
    26    23    24   ar
    27    31    28    1
    28    31    26    1
    29    24    19   ar
    30    24    32    1
    31    19    18    1
    32    11    10    1
    33    28    27    1
    34    28    29    1
    35    26    27    1
