@<TRIPOS>MOLECULE
L3024_0_out.pdbqt
 33 35 0 0 0
SMALL
GASTEIGER

@<TRIPOS>ATOM
      1 C27        15.0060  -17.9740   -1.3310 C.ar    1  MOL1       -0.0240
      2 C28        15.6230  -18.9420   -2.1440 C.ar    1  MOL1       -0.0570
      3 C29        15.6070  -20.2920   -1.7740 C.ar    1  MOL1       -0.0610
      4 C30        14.9770  -20.6870   -0.5910 C.ar    1  MOL1       -0.0480
      5 C31        14.3570  -19.7350    0.2250 C.ar    1  MOL1        0.0180
      6 Br32       13.4760  -20.2800    1.8340 Br      1  MOL1       -0.0510
      7 C33        14.3750  -18.3850   -0.1380 C.ar    1  MOL1       -0.0430
      8  C6        15.0900  -16.5090   -1.7010 C.3     1  MOL1        0.0630
      9  C5        14.1800  -15.6790   -0.7780 C.3     1  MOL1        0.0510
     10  C1        16.7630  -13.7530    1.4120 C.3     1  MOL1        0.0060
     11  N2        16.0080  -14.8230    0.7760 N.am    1  MOL1       -0.3590
     12  C3        14.9320  -14.5530   -0.1300 C.2     1  MOL1        0.2220
     13  O4        14.6110  -13.3620   -0.3930 O.2     1  MOL1       -0.2750
     14  N7        14.7140  -16.3170   -3.1050 N.am    1  MOL1       -0.3460
     15  C8        15.2830  -15.2910   -3.9210 C.2     1  MOL1        0.2580
     16  O9        16.1360  -14.4990   -3.4410 O.2     1  MOL1       -0.2710
     17 C10        14.8820  -15.1550   -5.3590 C.3     1  MOL1        0.1670
     18 O11        15.9280  -15.6110   -6.2140 O.3     1  MOL1       -0.4800
     19 C12        16.6240  -16.7970   -5.9660 C.ar    1  MOL1        0.1660
     20 C13        15.9990  -18.0560   -6.1120 C.ar    1  MOL1        0.0120
     21 C21        16.7590  -19.2240   -5.9300 C.ar    1  MOL1       -0.0540
     22 C22        18.1020  -19.1450   -5.5610 C.ar    1  MOL1       -0.0580
     23 C23        18.7040  -17.9010   -5.3690 C.ar    1  MOL1       -0.0160
     24 C24        17.9680  -16.7170   -5.5650 C.ar    1  MOL1        0.1610
     25 C14        14.5320  -18.1820   -6.4580 C.3     1  MOL1        0.0280
     26 N15        14.3370  -18.0870   -7.9200 N.3     1  MOL1       -0.2870
     27 C16        13.2920  -17.1080   -8.2640 C.3     1  MOL1        0.0640
     28 C17        12.3690  -18.1770   -8.8150 C.3     1  MOL1        0.2720
     29 F18        12.1640  -18.0840  -10.1810 F       1  MOL1       -0.2040
     30 F19        11.2050  -18.3400   -8.0820 F       1  MOL1       -0.2040
     31 C20        13.4630  -19.1560   -8.4340 C.3     1  MOL1        0.0640
     32 O25        18.5350  -15.4480   -5.3810 O.3     1  MOL1       -0.4930
     33 C26        19.5940  -15.1630   -4.4730 C.3     1  MOL1        0.0780
@<TRIPOS>BOND
     1    29    28    1
     2    28    31    1
     3    28    27    1
     4    28    30    1
     5    31    26    1
     6    27    26    1
     7    26    25    1
     8    25    20    1
     9    18    19    1
    10    18    17    1
    11    20    19   ar
    12    20    21   ar
    13    19    24   ar
    14    21    22   ar
    15    24    32    1
    16    24    23   ar
    17    22    23   ar
    18    32    33    1
    19    17    15    1
    20    15    16    2
    21    15    14   am
    22    14     8    1
    23     2     3   ar
    24     2     1   ar
    25     3     4   ar
    26     8     1    1
    27     8     9    1
    28     1     7   ar
    29     9    12    1
    30     4     5   ar
    31    13    12    2
    32     7     5   ar
    33    12    11   am
    34     5     6    1
    35    11    10    1
