@<TRIPOS>MOLECULE
L3024_0_out.pdbqt
 33 35 0 0 0
SMALL
GASTEIGER

@<TRIPOS>ATOM
      1 C27         5.9370  -19.2370   -8.3140 C.ar    1  MOL1       -0.0240
      2 C28         4.7480  -19.4580   -7.5940 C.ar    1  MOL1       -0.0570
      3 C29         3.9780  -20.6010   -7.8340 C.ar    1  MOL1       -0.0610
      4 C30         4.3860  -21.5330   -8.7930 C.ar    1  MOL1       -0.0480
      5 C31         5.5680  -21.3270   -9.5130 C.ar    1  MOL1        0.0180
      6 Br32        6.1370  -22.6140  -10.8090 Br      1  MOL1       -0.0510
      7 C33         6.3380  -20.1830   -9.2800 C.ar    1  MOL1       -0.0430
      8  C6         6.7260  -17.9630   -8.1000 C.3     1  MOL1        0.0630
      9  C5         5.9510  -16.7610   -8.6690 C.3     1  MOL1        0.0510
     10  C1         2.8690  -15.1700   -6.8960 C.3     1  MOL1        0.0060
     11  N2         3.7270  -15.7910   -7.8950 N.am    1  MOL1       -0.3590
     12  C3         5.0950  -16.1120   -7.6210 C.2     1  MOL1        0.2220
     13  O4         5.5900  -15.8520   -6.4900 O.2     1  MOL1       -0.2750
     14  N7         8.0460  -18.0710   -8.7300 N.am    1  MOL1       -0.3460
     15  C8         9.1230  -17.1860   -8.4150 C.2     1  MOL1        0.2580
     16  O9         8.9610  -16.2620   -7.5750 O.2     1  MOL1       -0.2710
     17 C10        10.4610  -17.3580   -9.0690 C.3     1  MOL1        0.1670
     18 O11        10.7480  -18.7400   -9.2640 O.3     1  MOL1       -0.4800
     19 C12        11.5650  -19.4590   -8.3870 C.ar    1  MOL1        0.1660
     20 C13        12.6490  -18.8390   -7.7230 C.ar    1  MOL1        0.0120
     21 C21        13.3950  -19.5780   -6.7900 C.ar    1  MOL1       -0.0540
     22 C22        13.1020  -20.9220   -6.5550 C.ar    1  MOL1       -0.0580
     23 C23        12.0650  -21.5450   -7.2480 C.ar    1  MOL1       -0.0160
     24 C24        11.2910  -20.8200   -8.1730 C.ar    1  MOL1        0.1610
     25 C14        13.0290  -17.4000   -7.9920 C.3     1  MOL1        0.0280
     26 N15        14.3340  -17.0870   -7.3750 N.3     1  MOL1       -0.2870
     27 C16        14.2940  -15.8130   -6.6370 C.3     1  MOL1        0.0640
     28 C17        15.2630  -15.1450   -7.5930 C.3     1  MOL1        0.2720
     29 F18        16.4820  -14.8300   -7.0180 F       1  MOL1       -0.2040
     30 F19        14.7020  -14.1100   -8.3220 F       1  MOL1       -0.2040
     31 C20        15.2680  -16.4690   -8.3320 C.3     1  MOL1        0.0640
     32 O25        10.2400  -21.4090   -8.8900 O.3     1  MOL1       -0.4930
     33 C26        10.1570  -22.7950   -9.2040 C.3     1  MOL1        0.0780
@<TRIPOS>BOND
     1     6     5    1
     2     5     7   ar
     3     5     4   ar
     4     7     1   ar
     5    18    17    1
     6    18    19    1
     7    33    32    1
     8    17    15    1
     9    32    24    1
    10     4     3   ar
    11    14    15   am
    12    14     8    1
    13     9     8    1
    14     9    12    1
    15    15    16    2
    16    19    24   ar
    17    19    20   ar
    18    31    28    1
    19    31    26    1
    20    30    28    1
    21     1     8    1
    22     1     2   ar
    23    24    23   ar
    24    25    20    1
    25    25    26    1
    26    11    12   am
    27    11    10    1
    28     3     2   ar
    29    20    21   ar
    30    12    13    2
    31    28    29    1
    32    28    27    1
    33    26    27    1
    34    23    22   ar
    35    21    22   ar
