@<TRIPOS>MOLECULE
L3024_0_out.pdbqt
 33 35 0 0 0
SMALL
GASTEIGER

@<TRIPOS>ATOM
      1 C27        16.6770  -17.6450   -6.4370 C.ar    1  MOL1       -0.0240
      2 C28        17.3800  -18.4830   -5.5520 C.ar    1  MOL1       -0.0570
      3 C29        18.4370  -19.2740   -6.0170 C.ar    1  MOL1       -0.0610
      4 C30        18.8010  -19.2360   -7.3650 C.ar    1  MOL1       -0.0480
      5 C31        18.1120  -18.4040   -8.2550 C.ar    1  MOL1        0.0180
      6 Br32       18.6250  -18.3370  -10.0970 Br      1  MOL1       -0.0510
      7 C33        17.0510  -17.6170   -7.7950 C.ar    1  MOL1       -0.0430
      8  C6        15.4890  -16.8490   -5.9410 C.3     1  MOL1        0.0630
      9  C5        15.4150  -16.9120   -4.4050 C.3     1  MOL1        0.0510
     10  C1        14.0110  -13.7440   -2.6250 C.3     1  MOL1        0.0060
     11  N2        14.1150  -15.0660   -3.2270 N.am    1  MOL1       -0.3590
     12  C3        15.3380  -15.5400   -3.8010 C.2     1  MOL1        0.2220
     13  O4        16.3630  -14.8050   -3.7990 O.2     1  MOL1       -0.2750
     14  N7        14.2500  -17.3580   -6.5390 N.am    1  MOL1       -0.3460
     15  C8        13.1550  -16.5070   -6.8840 C.2     1  MOL1        0.2580
     16  O9        13.2220  -15.2680   -6.6680 O.2     1  MOL1       -0.2710
     17 C10        11.9210  -17.0770   -7.5170 C.3     1  MOL1        0.1670
     18 O11        12.2690  -18.0370   -8.5120 O.3     1  MOL1       -0.4800
     19 C12        11.6580  -19.2920   -8.5770 C.ar    1  MOL1        0.1660
     20 C13        10.4440  -19.4780   -9.2780 C.ar    1  MOL1        0.0120
     21 C21         9.9060  -20.7710   -9.3850 C.ar    1  MOL1       -0.0540
     22 C22        10.5330  -21.8520   -8.7680 C.ar    1  MOL1       -0.0580
     23 C23        11.7040  -21.6580   -8.0340 C.ar    1  MOL1       -0.0160
     24 C24        12.2730  -20.3750   -7.9300 C.ar    1  MOL1        0.1610
     25 C14         9.7070  -18.3210   -9.9160 C.3     1  MOL1        0.0280
     26 N15         8.4790  -18.0100   -9.1550 N.3     1  MOL1       -0.2870
     27 C16         7.2860  -18.0340  -10.0190 C.3     1  MOL1        0.0640
     28 C17         7.0450  -16.5470   -9.8530 C.3     1  MOL1        0.2720
     29 F18         5.8860  -16.2450   -9.1600 F       1  MOL1       -0.2040
     30 F19         7.2040  -15.8230  -11.0240 F       1  MOL1       -0.2040
     31 C20         8.2850  -16.5600   -8.9810 C.3     1  MOL1        0.0640
     32 O25        13.4480  -20.1380   -7.2020 O.3     1  MOL1       -0.4930
     33 C26        14.5060  -21.0780   -7.0500 C.3     1  MOL1        0.0780
@<TRIPOS>BOND
     1    30    28    1
     2     6     5    1
     3    27    28    1
     4    27    26    1
     5    25    20    1
     6    25    26    1
     7    28    29    1
     8    28    31    1
     9    21    20   ar
    10    21    22   ar
    11    20    19   ar
    12    26    31    1
    13    22    23   ar
    14    19    18    1
    15    19    24   ar
    16    18    17    1
    17     5     7   ar
    18     5     4   ar
    19    23    24   ar
    20    24    32    1
    21     7     1   ar
    22    17    15    1
    23     4     3   ar
    24    32    33    1
    25    15    16    2
    26    15    14   am
    27    14     8    1
    28     1     8    1
    29     1     2   ar
    30     3     2   ar
    31     8     9    1
    32     9    12    1
    33    12    13    2
    34    12    11   am
    35    11    10    1
