@<TRIPOS>MOLECULE
L3024_0_out.pdbqt
 33 35 0 0 0
SMALL
GASTEIGER

@<TRIPOS>ATOM
      1 C27        12.6420  -19.1690   -7.4450 C.ar    1  MOL1       -0.0240
      2 C28        12.5890  -17.7870   -7.7040 C.ar    1  MOL1       -0.0570
      3 C29        11.3990  -17.1940   -8.1380 C.ar    1  MOL1       -0.0610
      4 C30        10.2520  -17.9720   -8.3180 C.ar    1  MOL1       -0.0480
      5 C31        10.2910  -19.3470   -8.0610 C.ar    1  MOL1        0.0180
      6 Br32        8.7150  -20.4090   -8.2880 Br      1  MOL1       -0.0510
      7 C33        11.4800  -19.9450   -7.6320 C.ar    1  MOL1       -0.0430
      8  C6        13.9520  -19.8140   -7.0460 C.3     1  MOL1        0.0630
      9  C5        13.7040  -21.2550   -6.5640 C.3     1  MOL1        0.0510
     10  C1        15.8810  -22.8830   -9.3540 C.3     1  MOL1        0.0060
     11  N2        15.3310  -21.9260   -8.4050 N.am    1  MOL1       -0.3590
     12  C3        14.2410  -22.2620   -7.5400 C.2     1  MOL1        0.2220
     13  O4        13.7250  -23.4120   -7.5900 O.2     1  MOL1       -0.2750
     14  N7        14.6090  -19.0260   -5.9980 N.am    1  MOL1       -0.3460
     15  C8        16.0280  -18.8720   -5.9270 C.2     1  MOL1        0.2580
     16  O9        16.7710  -19.4310   -6.7770 O.2     1  MOL1       -0.2710
     17 C10        16.6460  -18.0320   -4.8500 C.3     1  MOL1        0.1670
     18 O11        16.9620  -16.7340   -5.3480 O.3     1  MOL1       -0.4800
     19 C12        16.0570  -15.9920   -6.1110 C.ar    1  MOL1        0.1660
     20 C13        14.9400  -15.3640   -5.5130 C.ar    1  MOL1        0.0120
     21 C21        14.1000  -14.5630   -6.3040 C.ar    1  MOL1       -0.0540
     22 C22        14.3340  -14.4260   -7.6720 C.ar    1  MOL1       -0.0580
     23 C23        15.4070  -15.0870   -8.2690 C.ar    1  MOL1       -0.0160
     24 C24        16.2740  -15.8790   -7.4940 C.ar    1  MOL1        0.1610
     25 C14        14.6240  -15.5320   -4.0430 C.3     1  MOL1        0.0280
     26 N15        15.1290  -14.3790   -3.2710 N.3     1  MOL1       -0.2870
     27 C16        15.8300  -14.8090   -2.0500 C.3     1  MOL1        0.0640
     28 C17        14.7840  -14.1910   -1.1440 C.3     1  MOL1        0.2720
     29 F18        15.2530  -13.1220   -0.4010 F       1  MOL1       -0.2040
     30 F19        14.0700  -15.1190   -0.4030 F       1  MOL1       -0.2040
     31 C20        14.0850  -13.7770   -2.4240 C.3     1  MOL1        0.0640
     32 O25        17.3640  -16.5610   -8.0550 O.3     1  MOL1       -0.4930
     33 C26        17.3860  -17.0950   -9.3750 C.3     1  MOL1        0.0780
@<TRIPOS>BOND
     1    33    32    1
     2    10    11    1
     3    11    12   am
     4     4     3   ar
     5     4     5   ar
     6     6     5    1
     7    23    22   ar
     8    23    24   ar
     9     3     2   ar
    10     5     7   ar
    11    32    24    1
    12     2     1   ar
    13    22    21   ar
    14     7     1   ar
    15    13    12    2
    16    12     9    1
    17    24    19   ar
    18     1     8    1
    19     8     9    1
    20     8    14    1
    21    16    15    2
    22    21    20   ar
    23    19    20   ar
    24    19    18    1
    25    14    15   am
    26    15    17    1
    27    20    25    1
    28    18    17    1
    29    25    26    1
    30    26    31    1
    31    26    27    1
    32    31    28    1
    33    27    28    1
    34    28    30    1
    35    28    29    1
