@<TRIPOS>MOLECULE
L3024_0_out.pdbqt
 33 35 0 0 0
SMALL
GASTEIGER

@<TRIPOS>ATOM
      1 C27         6.8420  -16.9380  -10.3500 C.ar    1  MOL1       -0.0240
      2 C28         7.1500  -17.5970  -11.5540 C.ar    1  MOL1       -0.0570
      3 C29         6.7420  -17.0590  -12.7790 C.ar    1  MOL1       -0.0610
      4 C30         6.0240  -15.8610  -12.8150 C.ar    1  MOL1       -0.0480
      5 C31         5.7130  -15.1940  -11.6240 C.ar    1  MOL1        0.0180
      6 Br32        4.7490  -13.5420  -11.6750 Br      1  MOL1       -0.0510
      7 C33         6.1150  -15.7310  -10.3970 C.ar    1  MOL1       -0.0430
      8  C6         7.2230  -17.5640   -9.0250 C.3     1  MOL1        0.0630
      9  C5         7.0460  -16.5410   -7.8890 C.3     1  MOL1        0.0510
     10  C1         3.7850  -15.5810   -5.9860 C.3     1  MOL1        0.0060
     11  N2         5.1070  -15.5170   -6.5930 N.am    1  MOL1       -0.3590
     12  C3         5.6850  -16.6420   -7.2630 C.2     1  MOL1        0.2220
     13  O4         5.0500  -17.7300   -7.3350 O.2     1  MOL1       -0.2750
     14  N7         8.6060  -18.0500   -9.0720 N.am    1  MOL1       -0.3460
     15  C8         8.9720  -19.3690   -8.6610 C.2     1  MOL1        0.2580
     16  O9         8.0970  -20.1650   -8.2280 O.2     1  MOL1       -0.2710
     17 C10        10.3980  -19.8240   -8.7540 C.3     1  MOL1        0.1670
     18 O11        10.6860  -20.7740   -7.7310 O.3     1  MOL1       -0.4800
     19 C12        11.7550  -21.6680   -7.8300 C.ar    1  MOL1        0.1660
     20 C13        13.0230  -21.3550   -7.2870 C.ar    1  MOL1        0.0120
     21 C21        14.0470  -22.3150   -7.3400 C.ar    1  MOL1       -0.0540
     22 C22        13.8330  -23.5450   -7.9620 C.ar    1  MOL1       -0.0580
     23 C23        12.5970  -23.8320   -8.5410 C.ar    1  MOL1       -0.0160
     24 C24        11.5500  -22.8940   -8.4830 C.ar    1  MOL1        0.1610
     25 C14        13.3080  -20.0120   -6.6530 C.3     1  MOL1        0.0280
     26 N15        14.4720  -19.3720   -7.2990 N.3     1  MOL1       -0.2870
     27 C16        14.6760  -17.9980   -6.8110 C.3     1  MOL1        0.0640
     28 C17        14.3530  -17.3920   -8.1620 C.3     1  MOL1        0.2720
     29 F18        15.4330  -16.7720   -8.7660 F       1  MOL1       -0.2040
     30 F19        13.1940  -16.6330   -8.1690 F       1  MOL1       -0.2040
     31 C20        14.1390  -18.8200   -8.6230 C.3     1  MOL1        0.0640
     32 O25        10.2930  -23.1430   -9.0540 O.3     1  MOL1       -0.4930
     33 C26        10.0140  -24.2110   -9.9530 C.3     1  MOL1        0.0780
@<TRIPOS>BOND
     1     4     3   ar
     2     4     5   ar
     3     3     2   ar
     4     6     5    1
     5     5     7   ar
     6     2     1   ar
     7     7     1   ar
     8     1     8    1
     9    33    32    1
    10    14     8    1
    11    14    15   am
    12    32    24    1
    13     8     9    1
    14    29    28    1
    15    17    15    1
    16    17    18    1
    17    15    16    2
    18    31    28    1
    19    31    26    1
    20    23    24   ar
    21    23    22   ar
    22    24    19   ar
    23    30    28    1
    24    28    27    1
    25    22    21   ar
    26     9    12    1
    27    19    18    1
    28    19    20   ar
    29    21    20   ar
    30    13    12    2
    31    26    27    1
    32    26    25    1
    33    20    25    1
    34    12    11   am
    35    11    10    1
