@<TRIPOS>MOLECULE
L3024_0_out.pdbqt
 33 35 0 0 0
SMALL
GASTEIGER

@<TRIPOS>ATOM
      1 C27         9.3770  -20.4160   -8.4670 C.ar    1  MOL1       -0.0240
      2 C28         7.9820  -20.4420   -8.2910 C.ar    1  MOL1       -0.0570
      3 C29         7.2320  -21.5320   -8.7480 C.ar    1  MOL1       -0.0610
      4 C30         7.8660  -22.6020   -9.3840 C.ar    1  MOL1       -0.0480
      5 C31         9.2540  -22.5900   -9.5620 C.ar    1  MOL1        0.0180
      6 Br32       10.1240  -24.0660  -10.4130 Br      1  MOL1       -0.0510
      7 C33        10.0060  -21.5000   -9.1120 C.ar    1  MOL1       -0.0430
      8  C6        10.1720  -19.2020   -8.0350 C.3     1  MOL1        0.0630
      9  C5        10.2550  -18.1880   -9.1910 C.3     1  MOL1        0.0510
     10  C1         6.9880  -16.3400  -10.2340 C.3     1  MOL1        0.0060
     11  N2         8.1290  -17.2440  -10.2290 N.am    1  MOL1       -0.3590
     12  C3         9.0940  -17.2360   -9.1710 C.2     1  MOL1        0.2220
     13  O4         8.9730  -16.4270   -8.2110 O.2     1  MOL1       -0.2750
     14  N7        11.5150  -19.6010   -7.6020 N.am    1  MOL1       -0.3460
     15  C8        12.5390  -18.6520   -7.2980 C.2     1  MOL1        0.2580
     16  O9        12.3140  -17.4180   -7.4070 O.2     1  MOL1       -0.2710
     17 C10        13.8880  -19.1140   -6.8330 C.3     1  MOL1        0.1670
     18 O11        14.9180  -18.3470   -7.4510 O.3     1  MOL1       -0.4800
     19 C12        16.1710  -18.1740   -6.8570 C.ar    1  MOL1        0.1660
     20 C13        16.5000  -16.9760   -6.1810 C.ar    1  MOL1        0.0120
     21 C21        17.7410  -16.8760   -5.5300 C.ar    1  MOL1       -0.0540
     22 C22        18.6590  -17.9240   -5.5900 C.ar    1  MOL1       -0.0580
     23 C23        18.3520  -19.0850   -6.3000 C.ar    1  MOL1       -0.0160
     24 C24        17.1070  -19.2170   -6.9430 C.ar    1  MOL1        0.1610
     25 C14        15.5520  -15.7980   -6.1400 C.3     1  MOL1        0.0280
     26 N15        14.4720  -16.0390   -5.1620 N.3     1  MOL1       -0.2870
     27 C16        13.3880  -15.0510   -5.2970 C.3     1  MOL1        0.0640
     28 C17        13.6690  -14.4480   -3.9350 C.3     1  MOL1        0.2720
     29 F18        12.6530  -14.6510   -3.0170 F       1  MOL1       -0.2040
     30 F19        14.1250  -13.1410   -3.9870 F       1  MOL1       -0.2040
     31 C20        14.7840  -15.4710   -3.8390 C.3     1  MOL1        0.0640
     32 O25        16.7610  -20.3670   -7.6680 O.3     1  MOL1       -0.4930
     33 C26        16.8230  -21.6930   -7.1530 C.3     1  MOL1        0.0780
@<TRIPOS>BOND
     1     6     5    1
     2    10    11    1
     3    11    12   am
     4     5     4   ar
     5     5     7   ar
     6     4     3   ar
     7     9    12    1
     8     9     8    1
     9    12    13    2
    10     7     1   ar
    11     3     2   ar
    12     1     2   ar
    13     1     8    1
    14     8    14    1
    15    32    33    1
    16    32    24    1
    17    14    15   am
    18    18    19    1
    19    18    17    1
    20    16    15    2
    21    15    17    1
    22    24    19   ar
    23    24    23   ar
    24    19    20   ar
    25    23    22   ar
    26    20    25    1
    27    20    21   ar
    28    25    26    1
    29    22    21   ar
    30    27    26    1
    31    27    28    1
    32    26    31    1
    33    30    28    1
    34    28    31    1
    35    28    29    1
