@<TRIPOS>MOLECULE
L3024_0_out.pdbqt
 33 35 0 0 0
SMALL
GASTEIGER

@<TRIPOS>ATOM
      1 C27        14.8580  -19.1910   -7.2290 C.ar    1  MOL1       -0.0240
      2 C28        14.6250  -18.1980   -8.1990 C.ar    1  MOL1       -0.0570
      3 C29        15.4130  -17.0430   -8.2320 C.ar    1  MOL1       -0.0610
      4 C30        16.4390  -16.8670   -7.3000 C.ar    1  MOL1       -0.0480
      5 C31        16.6840  -17.8480   -6.3320 C.ar    1  MOL1        0.0180
      6 Br32       18.1030  -17.6160   -5.0700 Br      1  MOL1       -0.0510
      7 C33        15.8940  -19.0020   -6.2920 C.ar    1  MOL1       -0.0430
      8  C6        13.9540  -20.4030   -7.1540 C.3     1  MOL1        0.0630
      9  C5        14.7520  -21.6760   -7.4880 C.3     1  MOL1        0.0510
     10  C1        12.3640  -24.5070   -6.2800 C.3     1  MOL1        0.0060
     11  N2        13.2330  -23.3390   -6.2980 N.am    1  MOL1       -0.3590
     12  C3        13.8700  -22.8910   -7.5000 C.2     1  MOL1        0.2220
     13  O4        13.6910  -23.5150   -8.5810 O.2     1  MOL1       -0.2750
     14  N7        12.8200  -20.2490   -8.0720 N.am    1  MOL1       -0.3460
     15  C8        11.4640  -20.2410   -7.6230 C.2     1  MOL1        0.2580
     16  O9        11.1990  -20.3800   -6.3990 O.2     1  MOL1       -0.2710
     17 C10        10.3420  -20.0540   -8.6010 C.3     1  MOL1        0.1670
     18 O11         9.1290  -20.5890   -8.0770 O.3     1  MOL1       -0.4800
     19 C12         8.1560  -21.1640   -8.8990 C.ar    1  MOL1        0.1660
     20 C13         6.8960  -20.5490   -9.0800 C.ar    1  MOL1        0.0120
     21 C21         5.9780  -21.1200   -9.9770 C.ar    1  MOL1       -0.0540
     22 C22         6.2850  -22.3050  -10.6460 C.ar    1  MOL1       -0.0580
     23 C23         7.5090  -22.9360  -10.4280 C.ar    1  MOL1       -0.0160
     24 C24         8.4530  -22.3730   -9.5500 C.ar    1  MOL1        0.1610
     25 C14         6.5070  -19.2940   -8.3310 C.3     1  MOL1        0.0280
     26 N15         6.3220  -18.1690   -9.2710 N.3     1  MOL1       -0.2870
     27 C16         7.5230  -17.9480  -10.0940 C.3     1  MOL1        0.0640
     28 C17         7.7910  -16.5940   -9.4680 C.3     1  MOL1        0.2720
     29 F18         7.6400  -15.5350  -10.3470 F       1  MOL1       -0.2040
     30 F19         8.9600  -16.5440   -8.7260 F       1  MOL1       -0.2040
     31 C20         6.5570  -16.8640   -8.6300 C.3     1  MOL1        0.0640
     32 O25         9.6940  -22.9760   -9.3020 O.3     1  MOL1       -0.4930
     33 C26        10.1620  -24.1520   -9.9540 C.3     1  MOL1        0.0780
@<TRIPOS>BOND
     1    22    23   ar
     2    22    21   ar
     3    23    24   ar
     4    29    28    1
     5    27    28    1
     6    27    26    1
     7    21    20   ar
     8    33    32    1
     9    24    32    1
    10    24    19   ar
    11    28    30    1
    12    28    31    1
    13    26    31    1
    14    26    25    1
    15    20    19   ar
    16    20    25    1
    17    19    18    1
    18    17    18    1
    19    17    15    1
    20    13    12    2
    21     3     2   ar
    22     3     4   ar
    23     2     1   ar
    24    14    15   am
    25    14     8    1
    26    15    16    2
    27    12     9    1
    28    12    11   am
    29     9     8    1
    30     4     5   ar
    31     1     8    1
    32     1     7   ar
    33     5     7   ar
    34     5     6    1
    35    11    10    1
