@<TRIPOS>MOLECULE
L3024_0_out.pdbqt
 33 35 0 0 0
SMALL
GASTEIGER

@<TRIPOS>ATOM
      1 C27        15.7340  -17.4960   -1.9770 C.ar    1  MOL1       -0.0240
      2 C28        15.0070  -16.5340   -1.2520 C.ar    1  MOL1       -0.0570
      3 C29        14.2320  -16.9150   -0.1510 C.ar    1  MOL1       -0.0610
      4 C30        14.1740  -18.2570    0.2360 C.ar    1  MOL1       -0.0480
      5 C31        14.8950  -19.2230   -0.4750 C.ar    1  MOL1        0.0180
      6 Br32       14.8320  -21.0560    0.0680 Br      1  MOL1       -0.0510
      7 C33        15.6660  -18.8470   -1.5790 C.ar    1  MOL1       -0.0430
      8  C6        16.5110  -17.0870   -3.2090 C.3     1  MOL1        0.0630
      9  C5        16.6920  -15.5580   -3.2350 C.3     1  MOL1        0.0510
     10  C1        19.4150  -14.4120   -0.6970 C.3     1  MOL1        0.0060
     11  N2        18.1400  -14.8000   -1.2810 N.am    1  MOL1       -0.3590
     12  C3        18.0200  -15.1510   -2.6640 C.2     1  MOL1        0.2220
     13  O4        19.0340  -15.1240   -3.4140 O.2     1  MOL1       -0.2750
     14  N7        15.8230  -17.5460   -4.4200 N.am    1  MOL1       -0.3460
     15  C8        16.2370  -18.7030   -5.1490 C.2     1  MOL1        0.2580
     16  O9        17.2350  -19.3710   -4.7670 O.2     1  MOL1       -0.2710
     17 C10        15.4810  -19.1440   -6.3660 C.3     1  MOL1        0.1670
     18 O11        14.0880  -19.2390   -6.0810 O.3     1  MOL1       -0.4800
     19 C12        13.1150  -19.0640   -7.0690 C.ar    1  MOL1        0.1660
     20 C13        12.7570  -17.7730   -7.5220 C.ar    1  MOL1        0.0120
     21 C21        11.8330  -17.6470   -8.5720 C.ar    1  MOL1       -0.0540
     22 C22        11.2370  -18.7780   -9.1310 C.ar    1  MOL1       -0.0580
     23 C23        11.5540  -20.0480   -8.6480 C.ar    1  MOL1       -0.0160
     24 C24        12.4930  -20.2000   -7.6100 C.ar    1  MOL1        0.1610
     25 C14        13.3420  -16.5220   -6.9050 C.3     1  MOL1        0.0280
     26 N15        14.0340  -15.7150   -7.9320 N.3     1  MOL1       -0.2870
     27 C16        15.3470  -16.2860   -8.2750 C.3     1  MOL1        0.0640
     28 C17        16.0950  -15.1000   -7.7000 C.3     1  MOL1        0.2720
     29 F18        16.7640  -14.3500   -8.6520 F       1  MOL1       -0.2040
     30 F19        16.8630  -15.4100   -6.5890 F       1  MOL1       -0.2040
     31 C20        14.7260  -14.5520   -7.3510 C.3     1  MOL1        0.0640
     32 O25        12.8380  -21.4590   -7.0960 O.3     1  MOL1       -0.4930
     33 C26        13.5770  -22.4450   -7.8090 C.3     1  MOL1        0.0780
@<TRIPOS>BOND
     1    22    23   ar
     2    22    21   ar
     3    29    28    1
     4    23    24   ar
     5    21    20   ar
     6    27    26    1
     7    27    28    1
     8    26    31    1
     9    26    25    1
    10    33    32    1
    11    28    31    1
    12    28    30    1
    13    24    32    1
    14    24    19   ar
    15    20    19   ar
    16    20    25    1
    17    19    18    1
    18    17    18    1
    19    17    15    1
    20    15    16    2
    21    15    14   am
    22    14     8    1
    23    13    12    2
    24     9     8    1
    25     9    12    1
    26     8     1    1
    27    12    11   am
    28     1     7   ar
    29     1     2   ar
    30     7     5   ar
    31    11    10    1
    32     2     3   ar
    33     5     6    1
    34     5     4   ar
    35     3     4   ar
