@<TRIPOS>MOLECULE
L3024_0_out.pdbqt
 33 35 0 0 0
SMALL
GASTEIGER

@<TRIPOS>ATOM
      1 C27        15.0490  -16.9050   -2.9540 C.ar    1  MOL1       -0.0240
      2 C28        14.9680  -16.3020   -4.2230 C.ar    1  MOL1       -0.0570
      3 C29        14.8560  -14.9130   -4.3410 C.ar    1  MOL1       -0.0610
      4 C30        14.8240  -14.1120   -3.1960 C.ar    1  MOL1       -0.0480
      5 C31        14.9070  -14.6980   -1.9280 C.ar    1  MOL1        0.0180
      6 Br32       14.8850  -13.6000   -0.3620 Br      1  MOL1       -0.0510
      7 C33        15.0130  -16.0880   -1.8060 C.ar    1  MOL1       -0.0430
      8  C6        15.0960  -18.4130   -2.8340 C.3     1  MOL1        0.0630
      9  C5        15.7550  -18.8140   -1.5020 C.3     1  MOL1        0.0510
     10  C1        13.1140  -19.5960    1.2530 C.3     1  MOL1        0.0060
     11  N2        14.0530  -18.8920    0.3920 N.am    1  MOL1       -0.3590
     12  C3        14.8020  -19.5710   -0.6220 C.2     1  MOL1        0.2220
     13  O4        14.6620  -20.8140   -0.7860 O.2     1  MOL1       -0.2750
     14  N7        15.8270  -18.9910   -3.9660 N.am    1  MOL1       -0.3460
     15  C8        15.2680  -20.0020   -4.8070 C.2     1  MOL1        0.2580
     16  O9        14.1080  -20.4410   -4.5870 O.2     1  MOL1       -0.2710
     17 C10        16.0490  -20.5400   -5.9690 C.3     1  MOL1        0.1670
     18 O11        15.5880  -19.9650   -7.1890 O.3     1  MOL1       -0.4800
     19 C12        15.7380  -18.6050   -7.4710 C.ar    1  MOL1        0.1660
     20 C13        14.6150  -17.7550   -7.5940 C.ar    1  MOL1        0.0120
     21 C21        14.8150  -16.3800   -7.7990 C.ar    1  MOL1       -0.0540
     22 C22        16.1040  -15.8640   -7.9300 C.ar    1  MOL1       -0.0580
     23 C23        17.2090  -16.7120   -7.8590 C.ar    1  MOL1       -0.0160
     24 C24        17.0350  -18.0900   -7.6340 C.ar    1  MOL1        0.1610
     25 C14        13.2010  -18.2860   -7.5110 C.3     1  MOL1        0.0280
     26 N15        12.2650  -17.3740   -8.1990 N.3     1  MOL1       -0.2870
     27 C16        11.1130  -17.0350   -7.3470 C.3     1  MOL1        0.0640
     28 C17        10.1360  -17.7540   -8.2570 C.3     1  MOL1        0.2720
     29 F18         9.2420  -16.9090   -8.8900 F       1  MOL1       -0.2040
     30 F19         9.5440  -18.8630   -7.6740 F       1  MOL1       -0.2040
     31 C20        11.3490  -18.0930   -9.1010 C.3     1  MOL1        0.0640
     32 O25        18.1190  -18.9760   -7.5570 O.3     1  MOL1       -0.4930
     33 C26        19.0620  -19.0050   -6.4910 C.3     1  MOL1        0.0780
@<TRIPOS>BOND
     1    31    28    1
     2    31    26    1
     3    29    28    1
     4    28    30    1
     5    28    27    1
     6    26    25    1
     7    26    27    1
     8    22    23   ar
     9    22    21   ar
    10    23    24   ar
    11    21    20   ar
    12    24    32    1
    13    24    19   ar
    14    20    25    1
    15    20    19   ar
    16    32    33    1
    17    19    18    1
    18    18    17    1
    19    17    15    1
    20    15    16    2
    21    15    14   am
    22     3     2   ar
    23     3     4   ar
    24     2     1   ar
    25    14     8    1
    26     4     5   ar
    27     1     8    1
    28     1     7   ar
    29     8     9    1
    30     5     7   ar
    31     5     6    1
    32     9    12    1
    33    13    12    2
    34    12    11   am
    35    11    10    1
