@<TRIPOS>MOLECULE
L3024_0_out.pdbqt
 33 35 0 0 0
SMALL
GASTEIGER

@<TRIPOS>ATOM
      1 C27         9.2810  -17.8110   -9.2430 C.ar    1  MOL1       -0.0240
      2 C28         9.5530  -18.6400  -10.3470 C.ar    1  MOL1       -0.0570
      3 C29         8.7860  -18.5400  -11.5130 C.ar    1  MOL1       -0.0610
      4 C30         7.7430  -17.6130  -11.5890 C.ar    1  MOL1       -0.0480
      5 C31         7.4640  -16.7810  -10.5000 C.ar    1  MOL1        0.0180
      6 Br32        6.0490  -15.4970  -10.6130 Br      1  MOL1       -0.0510
      7 C33         8.2250  -16.8820   -9.3300 C.ar    1  MOL1       -0.0430
      8  C6        10.0670  -17.9760   -7.9610 C.3     1  MOL1        0.0630
      9  C5        10.8890  -16.7050   -7.6790 C.3     1  MOL1        0.0510
     10  C1        14.6690  -17.2310   -6.8990 C.3     1  MOL1        0.0060
     11  N2        13.2420  -16.9890   -6.7460 N.am    1  MOL1       -0.3590
     12  C3        12.3590  -16.9470   -7.8720 C.2     1  MOL1        0.2220
     13  O4        12.8110  -17.1170   -9.0370 O.2     1  MOL1       -0.2750
     14  N7        10.9430  -19.1490   -8.0480 N.am    1  MOL1       -0.3460
     15  C8        10.9440  -20.1830   -7.0620 C.2     1  MOL1        0.2580
     16  O9        10.1820  -20.1080   -6.0620 O.2     1  MOL1       -0.2710
     17 C10        11.8420  -21.3750   -7.2140 C.3     1  MOL1        0.1670
     18 O11        11.7500  -21.9030   -8.5350 O.3     1  MOL1       -0.4800
     19 C12        11.1660  -23.1450   -8.7980 C.ar    1  MOL1        0.1660
     20 C13         9.8520  -23.2400   -9.3130 C.ar    1  MOL1        0.0120
     21 C21         9.3340  -24.5050   -9.6370 C.ar    1  MOL1       -0.0540
     22 C22        10.0850  -25.6580   -9.4090 C.ar    1  MOL1       -0.0580
     23 C23        11.3610  -25.5650   -8.8540 C.ar    1  MOL1       -0.0160
     24 C24        11.9100  -24.3080   -8.5400 C.ar    1  MOL1        0.1610
     25 C14         8.9880  -22.0170   -9.5230 C.3     1  MOL1        0.0280
     26 N15         7.5730  -22.4070   -9.6840 N.3     1  MOL1       -0.2870
     27 C16         6.8880  -21.5620  -10.6770 C.3     1  MOL1        0.0640
     28 C17         5.9750  -20.9480   -9.6340 C.3     1  MOL1        0.2720
     29 F18         4.6440  -21.2910   -9.7890 F       1  MOL1       -0.2040
     30 F19         6.1870  -19.5930   -9.4370 F       1  MOL1       -0.2040
     31 C20         6.7130  -21.8230   -8.6400 C.3     1  MOL1        0.0640
     32 O25        13.1880  -24.1710   -7.9800 O.3     1  MOL1       -0.4930
     33 C26        14.3130  -23.6250   -8.6620 C.3     1  MOL1        0.0780
@<TRIPOS>BOND
     1     4     3   ar
     2     4     5   ar
     3     3     2   ar
     4    27    26    1
     5    27    28    1
     6     6     5    1
     7     5     7   ar
     8     2     1   ar
     9    29    28    1
    10    26    25    1
    11    26    31    1
    12    21    22   ar
    13    21    20   ar
    14    28    30    1
    15    28    31    1
    16    25    20    1
    17    22    23   ar
    18     7     1   ar
    19    20    19   ar
    20     1     8    1
    21    13    12    2
    22    23    24   ar
    23    19    24   ar
    24    19    18    1
    25    33    32    1
    26    24    32    1
    27    18    17    1
    28    14     8    1
    29    14    15   am
    30     8     9    1
    31    12     9    1
    32    12    11   am
    33    17    15    1
    34    15    16    2
    35    10    11    1
