@<TRIPOS>MOLECULE
L3024_0_out.pdbqt
 33 35 0 0 0
SMALL
GASTEIGER

@<TRIPOS>ATOM
      1 C27         7.6730  -18.8370   -9.1290 C.ar    1  MOL1       -0.0240
      2 C28         7.7710  -19.2580  -10.4680 C.ar    1  MOL1       -0.0570
      3 C29         7.0170  -20.3440  -10.9250 C.ar    1  MOL1       -0.0610
      4 C30         6.1600  -21.0200  -10.0520 C.ar    1  MOL1       -0.0480
      5 C31         6.0500  -20.6090   -8.7190 C.ar    1  MOL1        0.0180
      6 Br32        4.8600  -21.5210   -7.5310 Br      1  MOL1       -0.0510
      7 C33         6.8060  -19.5270   -8.2570 C.ar    1  MOL1       -0.0430
      8  C6         8.5450  -17.7080   -8.6250 C.3     1  MOL1        0.0630
      9  C5         7.9190  -16.3510   -8.9960 C.3     1  MOL1        0.0510
     10  C1         4.7650  -16.1960   -6.7170 C.3     1  MOL1        0.0060
     11  N2         6.1450  -16.2840   -7.1700 N.am    1  MOL1       -0.3590
     12  C3         6.4850  -16.2690   -8.5610 C.2     1  MOL1        0.2220
     13  O4         5.5770  -16.1830   -9.4330 O.2     1  MOL1       -0.2750
     14  N7         9.8970  -17.8230   -9.1810 N.am    1  MOL1       -0.3460
     15  C8        11.0670  -17.4640   -8.4420 C.2     1  MOL1        0.2580
     16  O9        10.9640  -17.0200   -7.2680 O.2     1  MOL1       -0.2710
     17 C10        12.4280  -17.6260   -9.0500 C.3     1  MOL1        0.1670
     18 O11        12.7580  -19.0070   -9.1720 O.3     1  MOL1       -0.4800
     19 C12        12.9360  -19.8290   -8.0560 C.ar    1  MOL1        0.1660
     20 C13        14.0780  -19.7050   -7.2320 C.ar    1  MOL1        0.0120
     21 C21        14.1780  -20.4970   -6.0760 C.ar    1  MOL1       -0.0540
     22 C22        13.1870  -21.4290   -5.7680 C.ar    1  MOL1       -0.0580
     23 C23        12.0860  -21.5850   -6.6100 C.ar    1  MOL1       -0.0160
     24 C24        11.9540  -20.7890   -7.7630 C.ar    1  MOL1        0.1610
     25 C14        15.1990  -18.7430   -7.5620 C.3     1  MOL1        0.0280
     26 N15        15.4900  -17.8740   -6.4040 N.3     1  MOL1       -0.2870
     27 C16        15.2490  -16.4550   -6.7170 C.3     1  MOL1        0.0640
     28 C17        16.7170  -16.1020   -6.5890 C.3     1  MOL1        0.2720
     29 F18        16.9970  -15.2700   -5.5180 F       1  MOL1       -0.2040
     30 F19        17.3000  -15.6990   -7.7790 F       1  MOL1       -0.2040
     31 C20        16.9270  -17.5720   -6.2830 C.3     1  MOL1        0.0640
     32 O25        10.8630  -20.9150   -8.6350 O.3     1  MOL1       -0.4930
     33 C26        10.2690  -22.1540   -9.0080 C.3     1  MOL1        0.0780
@<TRIPOS>BOND
     1     3     2   ar
     2     3     4   ar
     3     2     1   ar
     4     4     5   ar
     5    13    12    2
     6    14     8    1
     7    14    15   am
     8    18    17    1
     9    18    19    1
    10     1     8    1
    11     1     7   ar
    12    17    15    1
    13    33    32    1
    14     9     8    1
    15     9    12    1
    16     5     7   ar
    17     5     6    1
    18    32    24    1
    19    12    11   am
    20    15    16    2
    21    19    24   ar
    22    19    20   ar
    23    30    28    1
    24    24    23   ar
    25    25    20    1
    26    25    26    1
    27    20    21   ar
    28    11    10    1
    29    27    28    1
    30    27    26    1
    31    23    22   ar
    32    28    31    1
    33    28    29    1
    34    26    31    1
    35    21    22   ar
