@<TRIPOS>MOLECULE
L3024_0_out.pdbqt
 33 35 0 0 0
SMALL
GASTEIGER

@<TRIPOS>ATOM
      1 C27         4.2370  -15.1160   -9.0260 C.ar    1  MOL1       -0.0240
      2 C28         3.5620  -15.5550   -7.8720 C.ar    1  MOL1       -0.0570
      3 C29         2.2110  -15.2470   -7.6830 C.ar    1  MOL1       -0.0610
      4 C30         1.5210  -14.5000   -8.6410 C.ar    1  MOL1       -0.0480
      5 C31         2.1790  -14.0610   -9.7950 C.ar    1  MOL1        0.0180
      6 Br32        1.2280  -13.0570  -11.1170 Br      1  MOL1       -0.0510
      7 C33         3.5310  -14.3620   -9.9850 C.ar    1  MOL1       -0.0430
      8  C6         5.7160  -15.3910   -9.1890 C.3     1  MOL1        0.0630
      9  C5         6.1950  -14.9010  -10.5670 C.3     1  MOL1        0.0510
     10  C1         7.5680  -17.9880  -12.5070 C.3     1  MOL1        0.0060
     11  N2         7.4480  -16.8770  -11.5730 N.am    1  MOL1       -0.3590
     12  C3         6.2930  -16.0320  -11.5500 C.2     1  MOL1        0.2220
     13  O4         5.3450  -16.2340  -12.3570 O.2     1  MOL1       -0.2750
     14  N7         5.9880  -16.8230   -9.0270 N.am    1  MOL1       -0.3460
     15  C8         7.1410  -17.3140   -8.3390 C.2     1  MOL1        0.2580
     16  O9         7.9800  -16.5110   -7.8510 O.2     1  MOL1       -0.2710
     17 C10         7.3570  -18.7890   -8.1790 C.3     1  MOL1        0.1670
     18 O11         7.8280  -19.3600   -9.3980 O.3     1  MOL1       -0.4800
     19 C12         8.1180  -20.7210   -9.5170 C.ar    1  MOL1        0.1660
     20 C13         7.1060  -21.6600   -9.8220 C.ar    1  MOL1        0.0120
     21 C21         7.4550  -23.0080  -10.0090 C.ar    1  MOL1       -0.0540
     22 C22         8.7760  -23.4260   -9.8490 C.ar    1  MOL1       -0.0580
     23 C23         9.7650  -22.5060   -9.4990 C.ar    1  MOL1       -0.0160
     24 C24         9.4420  -21.1470   -9.3250 C.ar    1  MOL1        0.1610
     25 C14         5.6540  -21.2540   -9.9510 C.3     1  MOL1        0.0280
     26 N15         4.8060  -22.0830   -9.0700 N.3     1  MOL1       -0.2870
     27 C16         3.3790  -21.7590   -9.2310 C.3     1  MOL1        0.0640
     28 C17         3.2680  -21.2140   -7.8210 C.3     1  MOL1        0.2720
     29 F18         2.4580  -21.9730   -6.9940 F       1  MOL1       -0.2040
     30 F19         3.0070  -19.8540   -7.7680 F       1  MOL1       -0.2040
     31 C20         4.7410  -21.5490   -7.6980 C.3     1  MOL1        0.0640
     32 O25        10.4060  -20.1920   -8.9720 O.3     1  MOL1       -0.4930
     33 C26        10.8940  -19.9900   -7.6500 C.3     1  MOL1        0.0780
@<TRIPOS>BOND
     1    10    11    1
     2    13    12    2
     3    11    12   am
     4    12     9    1
     5     6     5    1
     6     9     8    1
     7    21    22   ar
     8    21    20   ar
     9     7     5   ar
    10     7     1   ar
    11    25    20    1
    12    25    26    1
    13    22    23   ar
    14    20    19   ar
    15     5     4   ar
    16    19    18    1
    17    19    24   ar
    18    23    24   ar
    19    18    17    1
    20    24    32    1
    21    27    26    1
    22    27    28    1
    23     8    14    1
    24     8     1    1
    25    26    31    1
    26    14    15   am
    27     1     2   ar
    28    32    33    1
    29     4     3   ar
    30    15    17    1
    31    15    16    2
    32     2     3   ar
    33    28    30    1
    34    28    31    1
    35    28    29    1
