@<TRIPOS>MOLECULE
L3024_0_out.pdbqt
 33 35 0 0 0
SMALL
GASTEIGER

@<TRIPOS>ATOM
      1 C27         9.9720  -18.1640   -8.7130 C.ar    1  MOL1       -0.0240
      2 C28         9.5520  -17.0450   -7.9700 C.ar    1  MOL1       -0.0570
      3 C29         8.5200  -16.2280   -8.4430 C.ar    1  MOL1       -0.0610
      4 C30         7.8970  -16.5180   -9.6600 C.ar    1  MOL1       -0.0480
      5 C31         8.3020  -17.6300  -10.4070 C.ar    1  MOL1        0.0180
      6 Br32        7.4340  -18.0390  -12.0630 Br      1  MOL1       -0.0510
      7 C33         9.3380  -18.4460   -9.9400 C.ar    1  MOL1       -0.0430
      8  C6        11.1370  -19.0000   -8.2310 C.3     1  MOL1        0.0630
      9  C5        10.6200  -20.2450   -7.4870 C.3     1  MOL1        0.0510
     10  C1        12.3350  -23.6070   -8.4500 C.3     1  MOL1        0.0060
     11  N2        11.9940  -22.3720   -7.7590 N.am    1  MOL1       -0.3590
     12  C3        10.9550  -21.5070   -8.2280 C.2     1  MOL1        0.2220
     13  O4        10.3080  -21.8030   -9.2700 O.2     1  MOL1       -0.2750
     14  N7        12.0080  -18.2030   -7.3600 N.am    1  MOL1       -0.3460
     15  C8        13.2220  -17.6070   -7.8250 C.2     1  MOL1        0.2580
     16  O9        13.5890  -17.7630   -9.0190 O.2     1  MOL1       -0.2710
     17 C10        14.0630  -16.7800   -6.8990 C.3     1  MOL1        0.1670
     18 O11        15.3700  -16.6020   -7.4380 O.3     1  MOL1       -0.4800
     19 C12        16.5040  -17.1460   -6.8290 C.ar    1  MOL1        0.1660
     20 C13        17.0170  -16.6090   -5.6260 C.ar    1  MOL1        0.0120
     21 C21        18.1100  -17.2370   -5.0060 C.ar    1  MOL1       -0.0540
     22 C22        18.7150  -18.3480   -5.5940 C.ar    1  MOL1       -0.0580
     23 C23        18.2390  -18.8460   -6.8070 C.ar    1  MOL1       -0.0160
     24 C24        17.1320  -18.2460   -7.4360 C.ar    1  MOL1        0.1610
     25 C14        16.4210  -15.3740   -4.9870 C.3     1  MOL1        0.0280
     26 N15        16.1610  -15.6100   -3.5520 N.3     1  MOL1       -0.2870
     27 C16        15.0140  -16.5120   -3.3500 C.3     1  MOL1        0.0640
     28 C17        14.1780  -15.4230   -2.7070 C.3     1  MOL1        0.2720
     29 F18        13.9120  -15.6460   -1.3670 F       1  MOL1       -0.2040
     30 F19        13.0640  -15.0640   -3.4480 F       1  MOL1       -0.2040
     31 C20        15.3750  -14.5230   -2.9440 C.3     1  MOL1        0.0640
     32 O25        16.6230  -18.7150   -8.6560 O.3     1  MOL1       -0.4930
     33 C26        16.3270  -20.0800   -8.9340 C.3     1  MOL1        0.0780
@<TRIPOS>BOND
     1     6     5    1
     2     5     7   ar
     3     5     4   ar
     4     7     1   ar
     5     4     3   ar
     6    13    12    2
     7    16    15    2
     8    33    32    1
     9     1     8    1
    10     1     2   ar
    11    32    24    1
    12    10    11    1
    13     3     2   ar
    14     8     9    1
    15     8    14    1
    16    12    11   am
    17    12     9    1
    18    15    14   am
    19    15    17    1
    20    18    17    1
    21    18    19    1
    22    24    19   ar
    23    24    23   ar
    24    19    20   ar
    25    23    22   ar
    26    20    21   ar
    27    20    25    1
    28    22    21   ar
    29    25    26    1
    30    26    27    1
    31    26    31    1
    32    30    28    1
    33    27    28    1
    34    31    28    1
    35    28    29    1
