@<TRIPOS>MOLECULE
L3024_0_out.pdbqt
 33 35 0 0 0
SMALL
GASTEIGER

@<TRIPOS>ATOM
      1 C27         7.0730  -18.8530   -9.8750 C.ar    1  MOL1       -0.0240
      2 C28         7.2410  -19.7480  -10.9470 C.ar    1  MOL1       -0.0570
      3 C29         6.7160  -21.0430  -10.8770 C.ar    1  MOL1       -0.0610
      4 C30         6.0190  -21.4560   -9.7390 C.ar    1  MOL1       -0.0480
      5 C31         5.8410  -20.5750   -8.6670 C.ar    1  MOL1        0.0180
      6 Br32        4.8680  -21.1350   -7.1180 Br      1  MOL1       -0.0510
      7 C33         6.3690  -19.2820   -8.7310 C.ar    1  MOL1       -0.0430
      8  C6         7.7060  -17.4790   -9.9290 C.3     1  MOL1        0.0630
      9  C5         8.4540  -17.1920   -8.6140 C.3     1  MOL1        0.0510
     10  C1        11.8300  -18.5080  -10.0430 C.3     1  MOL1        0.0060
     11  N2        10.4240  -18.1540   -9.9090 N.am    1  MOL1       -0.3590
     12  C3         9.9070  -17.5550   -8.7170 C.2     1  MOL1        0.2220
     13  O4        10.6730  -17.3250   -7.7410 O.2     1  MOL1       -0.2750
     14  N7         6.6830  -16.4570  -10.1750 N.am    1  MOL1       -0.3460
     15  C8         6.2440  -16.1090  -11.4900 C.2     1  MOL1        0.2580
     16  O9         6.7430  -16.6780  -12.4970 O.2     1  MOL1       -0.2710
     17 C10         5.1760  -15.0750  -11.6840 C.3     1  MOL1        0.1670
     18 O11         4.9470  -14.3610  -10.4710 O.3     1  MOL1       -0.4800
     19 C12         3.7210  -14.4080   -9.8030 C.ar    1  MOL1        0.1660
     20 C13         2.5640  -13.8110  -10.3530 C.ar    1  MOL1        0.0120
     21 C21         1.3360  -13.9510   -9.6850 C.ar    1  MOL1       -0.0540
     22 C22         1.2660  -14.6290   -8.4690 C.ar    1  MOL1       -0.0580
     23 C23         2.4180  -15.1750   -7.9020 C.ar    1  MOL1       -0.0160
     24 C24         3.6560  -15.0650   -8.5630 C.ar    1  MOL1        0.1610
     25 C14         2.6120  -13.0220  -11.6430 C.3     1  MOL1        0.0280
     26 N15         1.8080  -11.7880  -11.5230 N.3     1  MOL1       -0.2870
     27 C16         1.8500  -10.9920  -12.7620 C.3     1  MOL1        0.0640
     28 C17         2.5960   -9.8550  -12.0920 C.3     1  MOL1        0.2720
     29 F18         1.8580   -8.6880  -11.9940 F       1  MOL1       -0.2040
     30 F19         3.8800   -9.6680  -12.5780 F       1  MOL1       -0.2040
     31 C20         2.5440  -10.7100  -10.8410 C.3     1  MOL1        0.0640
     32 O25         4.8370  -15.5980   -8.0270 O.3     1  MOL1       -0.4930
     33 C26         4.8990  -16.3940   -6.8480 C.3     1  MOL1        0.0780
@<TRIPOS>BOND
     1    27    28    1
     2    27    26    1
     3    30    28    1
     4    16    15    2
     5    28    29    1
     6    28    31    1
     7    17    15    1
     8    17    18    1
     9    25    26    1
    10    25    20    1
    11    26    31    1
    12    15    14   am
    13     2     3   ar
    14     2     1   ar
    15     3     4   ar
    16    18    19    1
    17    20    19   ar
    18    20    21   ar
    19    14     8    1
    20    10    11    1
    21     8     1    1
    22     8     9    1
    23    11    12   am
    24     1     7   ar
    25    19    24   ar
    26     4     5   ar
    27    21    22   ar
    28     7     5   ar
    29    12     9    1
    30    12    13    2
    31     5     6    1
    32    24    32    1
    33    24    23   ar
    34    22    23   ar
    35    32    33    1
