@<TRIPOS>MOLECULE
L3024_0_out.pdbqt
 33 35 0 0 0
SMALL
GASTEIGER

@<TRIPOS>ATOM
      1 C27        10.5240  -18.5280   -8.9430 C.ar    1  MOL1       -0.0240
      2 C28        10.4960  -18.8530  -10.3110 C.ar    1  MOL1       -0.0570
      3 C29         9.3580  -18.5840  -11.0800 C.ar    1  MOL1       -0.0610
      4 C30         8.2390  -17.9880  -10.4910 C.ar    1  MOL1       -0.0480
      5 C31         8.2550  -17.6570   -9.1310 C.ar    1  MOL1        0.0180
      6 Br32        6.7310  -16.8220   -8.3310 Br      1  MOL1       -0.0510
      7 C33         9.3890  -17.9300   -8.3590 C.ar    1  MOL1       -0.0430
      8  C6        11.7300  -18.8890   -8.1030 C.3     1  MOL1        0.0630
      9  C5        11.3760  -20.0340   -7.1370 C.3     1  MOL1        0.0510
     10  C1        14.6320  -22.1270   -7.5700 C.3     1  MOL1        0.0060
     11  N2        13.4530  -21.3220   -7.8530 N.am    1  MOL1       -0.3590
     12  C3        12.5780  -20.8730   -6.8130 C.2     1  MOL1        0.2220
     13  O4        12.8150  -21.1780   -5.6120 O.2     1  MOL1       -0.2750
     14  N7        12.2030  -17.7150   -7.3620 N.am    1  MOL1       -0.3460
     15  C8        13.4260  -17.0480   -7.6790 C.2     1  MOL1        0.2580
     16  O9        14.1530  -17.4660   -8.6190 O.2     1  MOL1       -0.2710
     17 C10        13.8510  -15.8350   -6.9060 C.3     1  MOL1        0.1670
     18 O11        15.0970  -16.0690   -6.2550 O.3     1  MOL1       -0.4800
     19 C12        15.1720  -16.6190   -4.9730 C.ar    1  MOL1        0.1660
     20 C13        15.6200  -17.9440   -4.7700 C.ar    1  MOL1        0.0120
     21 C21        15.7550  -18.4290   -3.4580 C.ar    1  MOL1       -0.0540
     22 C22        15.4060  -17.6310   -2.3690 C.ar    1  MOL1       -0.0580
     23 C23        14.9170  -16.3410   -2.5730 C.ar    1  MOL1       -0.0160
     24 C24        14.7920  -15.8260   -3.8770 C.ar    1  MOL1        0.1610
     25 C14        15.9570  -18.8570   -5.9280 C.3     1  MOL1        0.0280
     26 N15        17.3050  -19.4370   -5.7530 N.3     1  MOL1       -0.2870
     27 C16        18.3600  -18.4350   -5.9830 C.3     1  MOL1        0.0640
     28 C17        18.8690  -19.1490   -7.2190 C.3     1  MOL1        0.2720
     29 F18        20.1400  -19.6780   -7.0720 F       1  MOL1       -0.2040
     30 F19        18.6930  -18.4300   -8.3900 F       1  MOL1       -0.2040
     31 C20        17.7630  -20.1520   -6.9570 C.3     1  MOL1        0.0640
     32 O25        14.3030  -14.5350   -4.1260 O.3     1  MOL1       -0.4930
     33 C26        13.8930  -13.6210   -3.1150 C.3     1  MOL1        0.0780
@<TRIPOS>BOND
     1     3     4   ar
     2     3     2   ar
     3     4     5   ar
     4     2     1   ar
     5     5     7   ar
     6     5     6    1
     7     1     7   ar
     8     1     8    1
     9    16    15    2
    10    30    28    1
    11     8    14    1
    12     8     9    1
    13    11    10    1
    14    11    12   am
    15    15    14   am
    16    15    17    1
    17    28    29    1
    18    28    31    1
    19    28    27    1
    20     9    12    1
    21    31    26    1
    22    17    18    1
    23    12    13    2
    24    18    19    1
    25    27    26    1
    26    25    26    1
    27    25    20    1
    28    19    20   ar
    29    19    24   ar
    30    20    21   ar
    31    32    24    1
    32    32    33    1
    33    24    23   ar
    34    21    22   ar
    35    23    22   ar
