@<TRIPOS>MOLECULE
L3024_0_out.pdbqt
 33 35 0 0 0
SMALL
GASTEIGER

@<TRIPOS>ATOM
      1 C27        -0.6390  -22.6980  -11.3820 C.ar    1  MOL1       -0.0240
      2 C28        -1.3590  -23.8920  -11.5720 C.ar    1  MOL1       -0.0570
      3 C29        -2.2960  -23.9970  -12.6050 C.ar    1  MOL1       -0.0610
      4 C30        -2.5250  -22.9130  -13.4570 C.ar    1  MOL1       -0.0480
      5 C31        -1.8140  -21.7200  -13.2810 C.ar    1  MOL1        0.0180
      6 Br32       -2.1120  -20.2440  -14.4610 Br      1  MOL1       -0.0510
      7 C33        -0.8800  -21.6100  -12.2450 C.ar    1  MOL1       -0.0430
      8  C6         0.3190  -22.5690  -10.2180 C.3     1  MOL1        0.0630
      9  C5        -0.1330  -21.4290   -9.2870 C.3     1  MOL1        0.0510
     10  C1        -1.1300  -23.5400   -6.1690 C.3     1  MOL1        0.0060
     11  N2        -0.3990  -23.0190   -7.3150 N.am    1  MOL1       -0.3590
     12  C3        -0.9160  -21.9510   -8.1170 C.2     1  MOL1        0.2220
     13  O4        -2.0350  -21.4380   -7.8420 O.2     1  MOL1       -0.2750
     14  N7         1.6810  -22.3270  -10.7050 N.am    1  MOL1       -0.3460
     15  C8         2.8310  -22.4480   -9.8660 C.2     1  MOL1        0.2580
     16  O9         2.7020  -22.7620   -8.6530 O.2     1  MOL1       -0.2710
     17 C10         4.2040  -22.2160  -10.4220 C.3     1  MOL1        0.1670
     18 O11         5.1350  -21.9730   -9.3700 O.3     1  MOL1       -0.4800
     19 C12         5.6780  -20.7070   -9.1380 C.ar    1  MOL1        0.1660
     20 C13         6.7490  -20.2160   -9.9210 C.ar    1  MOL1        0.0120
     21 C21         7.2120  -18.9080   -9.7060 C.ar    1  MOL1       -0.0540
     22 C22         6.6560  -18.1170   -8.7000 C.ar    1  MOL1       -0.0580
     23 C23         5.6340  -18.6200   -7.8960 C.ar    1  MOL1       -0.0160
     24 C24         5.1400  -19.9210   -8.1060 C.ar    1  MOL1        0.1610
     25 C14         7.4110  -21.0640  -10.9850 C.3     1  MOL1        0.0280
     26 N15         8.8180  -21.3360  -10.6250 N.3     1  MOL1       -0.2870
     27 C16         9.2800  -22.6200  -11.1800 C.3     1  MOL1        0.0640
     28 C17         9.4370  -23.2420   -9.8060 C.3     1  MOL1        0.2720
     29 F18        10.7500  -23.5200   -9.4680 F       1  MOL1       -0.2040
     30 F19         8.5610  -24.2880   -9.5650 F       1  MOL1       -0.2040
     31 C20         8.9450  -21.9100   -9.2740 C.3     1  MOL1        0.0640
     32 O25         4.1150  -20.4660   -7.3190 O.3     1  MOL1       -0.4930
     33 C26         4.3260  -21.2150   -6.1270 C.3     1  MOL1        0.0780
@<TRIPOS>BOND
     1     6     5    1
     2     4     5   ar
     3     4     3   ar
     4     5     7   ar
     5     3     2   ar
     6     7     1   ar
     7     2     1   ar
     8     1     8    1
     9    27    26    1
    10    27    28    1
    11    25    26    1
    12    25    20    1
    13    14     8    1
    14    14    15   am
    15    26    31    1
    16    17    15    1
    17    17    18    1
    18     8     9    1
    19    20    21   ar
    20    20    19   ar
    21    15    16    2
    22    28    30    1
    23    28    29    1
    24    28    31    1
    25    21    22   ar
    26    18    19    1
    27     9    12    1
    28    19    24   ar
    29    22    23   ar
    30    12    13    2
    31    12    11   am
    32    24    23   ar
    33    24    32    1
    34    32    33    1
    35    11    10    1
