@<TRIPOS>MOLECULE
L3024_0_out.pdbqt
 33 35 0 0 0
SMALL
GASTEIGER

@<TRIPOS>ATOM
      1 C27         8.8310  -17.8860  -10.2490 C.ar    1  MOL1       -0.0240
      2 C28         9.6000  -18.6590  -11.1370 C.ar    1  MOL1       -0.0570
      3 C29        10.9390  -18.9450  -10.8490 C.ar    1  MOL1       -0.0610
      4 C30        11.5230  -18.4630   -9.6750 C.ar    1  MOL1       -0.0480
      5 C31        10.7680  -17.6940   -8.7810 C.ar    1  MOL1        0.0180
      6 Br32       11.5610  -17.0520   -7.1630 Br      1  MOL1       -0.0510
      7 C33         9.4310  -17.4020   -9.0680 C.ar    1  MOL1       -0.0430
      8  C6         7.4060  -17.5200  -10.6030 C.3     1  MOL1        0.0630
      9  C5         7.1720  -16.0170  -10.3640 C.3     1  MOL1        0.0510
     10  C1         3.8120  -14.2800  -11.2950 C.3     1  MOL1        0.0060
     11  N2         4.9430  -14.7980  -10.5380 N.am    1  MOL1       -0.3590
     12  C3         6.0150  -15.5050  -11.1710 C.2     1  MOL1        0.2220
     13  O4         5.9950  -15.7000  -12.4170 O.2     1  MOL1       -0.2750
     14  N7         6.4650  -18.3210   -9.8120 N.am    1  MOL1       -0.3460
     15  C8         6.1260  -17.9980   -8.4620 C.2     1  MOL1        0.2580
     16  O9         6.6460  -17.0000   -7.8980 O.2     1  MOL1       -0.2710
     17 C10         5.1370  -18.8360   -7.7080 C.3     1  MOL1        0.1670
     18 O11         5.4550  -20.2200   -7.8370 O.3     1  MOL1       -0.4800
     19 C12         4.8860  -21.0210   -8.8310 C.ar    1  MOL1        0.1660
     20 C13         5.6750  -21.5660   -9.8700 C.ar    1  MOL1        0.0120
     21 C21         5.0770  -22.4300  -10.8030 C.ar    1  MOL1       -0.0540
     22 C22         3.7130  -22.7110  -10.7350 C.ar    1  MOL1       -0.0580
     23 C23         2.9270  -22.1320   -9.7380 C.ar    1  MOL1       -0.0160
     24 C24         3.5070  -21.2790   -8.7810 C.ar    1  MOL1        0.1610
     25 C14         7.1460  -21.2420  -10.0070 C.3     1  MOL1        0.0280
     26 N15         7.9450  -22.0730   -9.0840 N.3     1  MOL1       -0.2870
     27 C16         9.3800  -21.7500   -9.1680 C.3     1  MOL1        0.0640
     28 C17         9.7280  -23.1110   -9.7370 C.3     1  MOL1        0.2720
     29 F18        10.4950  -23.8890   -8.8870 F       1  MOL1       -0.2040
     30 F19        10.2030  -23.0660  -11.0380 F       1  MOL1       -0.2040
     31 C20         8.2430  -23.4010   -9.6480 C.3     1  MOL1        0.0640
     32 O25         2.7520  -20.6770   -7.7640 O.3     1  MOL1       -0.4930
     33 C26         1.4780  -21.1380   -7.3260 C.3     1  MOL1        0.0780
@<TRIPOS>BOND
     1    13    12    2
     2    10    11    1
     3    12    11   am
     4    12     9    1
     5     2     3   ar
     6     2     1   ar
     7    30    28    1
     8     3     4   ar
     9    21    22   ar
    10    21    20   ar
    11    22    23   ar
    12     8     9    1
    13     8     1    1
    14     8    14    1
    15     1     7   ar
    16    25    20    1
    17    25    26    1
    18    20    19   ar
    19    14    15   am
    20    23    24   ar
    21    28    31    1
    22    28    27    1
    23    28    29    1
    24     4     5   ar
    25    31    26    1
    26    27    26    1
    27     7     5   ar
    28    19    24   ar
    29    19    18    1
    30    24    32    1
    31     5     6    1
    32    15    16    2
    33    15    17    1
    34    18    17    1
    35    32    33    1
