@<TRIPOS>MOLECULE
L3024_0_out.pdbqt
 33 35 0 0 0
SMALL
GASTEIGER

@<TRIPOS>ATOM
      1 C27         5.2710  -14.4600  -11.2760 C.ar    1  MOL1       -0.0240
      2 C28         5.4180  -13.2700  -12.0110 C.ar    1  MOL1       -0.0570
      3 C29         4.4090  -12.3010  -12.0000 C.ar    1  MOL1       -0.0610
      4 C30         3.2440  -12.5110  -11.2570 C.ar    1  MOL1       -0.0480
      5 C31         3.0860  -13.6890  -10.5180 C.ar    1  MOL1        0.0180
      6 Br32        1.5000  -13.9660   -9.4840 Br      1  MOL1       -0.0510
      7 C33         4.0910  -14.6620  -10.5310 C.ar    1  MOL1       -0.0430
      8  C6         6.3350  -15.5330  -11.3510 C.3     1  MOL1        0.0630
      9  C5         6.2730  -16.2430  -12.7150 C.3     1  MOL1        0.0510
     10  C1         7.8360  -19.7150  -11.8960 C.3     1  MOL1        0.0060
     11  N2         6.9760  -18.5410  -11.8720 N.am    1  MOL1       -0.3590
     12  C3         7.1840  -17.4350  -12.7580 C.2     1  MOL1        0.2220
     13  O4         8.1360  -17.4580  -13.5850 O.2     1  MOL1       -0.2750
     14  N7         6.1620  -16.4970  -10.2590 N.am    1  MOL1       -0.3460
     15  C8         7.1890  -16.7680   -9.3020 C.2     1  MOL1        0.2580
     16  O9         8.2990  -16.1780   -9.3780 O.2     1  MOL1       -0.2710
     17 C10         6.9500  -17.7440   -8.1890 C.3     1  MOL1        0.1670
     18 O11         8.1500  -18.4480   -7.8780 O.3     1  MOL1       -0.4800
     19 C12         8.4070  -19.7300   -8.3700 C.ar    1  MOL1        0.1660
     20 C13         7.3930  -20.7150   -8.4100 C.ar    1  MOL1        0.0120
     21 C21         7.6730  -21.9650   -8.9860 C.ar    1  MOL1       -0.0540
     22 C22         8.9500  -22.2510   -9.4700 C.ar    1  MOL1       -0.0580
     23 C23         9.9630  -21.2950   -9.3840 C.ar    1  MOL1       -0.0160
     24 C24         9.7000  -20.0290   -8.8290 C.ar    1  MOL1        0.1610
     25 C14         6.0120  -20.4590   -7.8470 C.3     1  MOL1        0.0280
     26 N15         5.1620  -21.6580   -8.0010 N.3     1  MOL1       -0.2870
     27 C16         4.0640  -21.4250   -8.9550 C.3     1  MOL1        0.0640
     28 C17         3.0050  -21.5490   -7.8780 C.3     1  MOL1        0.2720
     29 F18         2.1900  -22.6580   -8.0260 F       1  MOL1       -0.2040
     30 F19         2.3130  -20.3730   -7.6370 F       1  MOL1       -0.2040
     31 C20         4.1630  -21.7730   -6.9250 C.3     1  MOL1        0.0640
     32 O25        10.6900  -19.0420   -8.7240 O.3     1  MOL1       -0.4930
     33 C26        11.6980  -18.8030   -9.7010 C.3     1  MOL1        0.0780
@<TRIPOS>BOND
     1    13    12    2
     2    12     9    1
     3    12    11   am
     4     9     8    1
     5     2     3   ar
     6     2     1   ar
     7     3     4   ar
     8    10    11    1
     9     8     1    1
    10     8    14    1
    11     1     7   ar
    12     4     5   ar
    13     7     5   ar
    14     5     6    1
    15    14    15   am
    16    33    32    1
    17    22    23   ar
    18    22    21   ar
    19    23    24   ar
    20    16    15    2
    21    15    17    1
    22    21    20   ar
    23    27    26    1
    24    27    28    1
    25    24    32    1
    26    24    19   ar
    27    20    19   ar
    28    20    25    1
    29    19    18    1
    30    17    18    1
    31    29    28    1
    32    26    25    1
    33    26    31    1
    34    28    30    1
    35    28    31    1
