@<TRIPOS>MOLECULE
L3024_0_out.pdbqt
 33 35 0 0 0
SMALL
GASTEIGER

@<TRIPOS>ATOM
      1 C27         8.4720  -19.9700   -9.8770 C.ar    1  MOL1       -0.0240
      2 C28         7.2380  -20.0160  -10.5510 C.ar    1  MOL1       -0.0570
      3 C29         6.8490  -21.1730  -11.2350 C.ar    1  MOL1       -0.0610
      4 C30         7.6850  -22.2930  -11.2530 C.ar    1  MOL1       -0.0480
      5 C31         8.9130  -22.2610  -10.5830 C.ar    1  MOL1        0.0180
      6 Br32       10.0470  -23.8020  -10.5900 Br      1  MOL1       -0.0510
      7 C33         9.3090  -21.1050   -9.9030 C.ar    1  MOL1       -0.0430
      8  C6         8.9190  -18.6920   -9.2010 C.3     1  MOL1        0.0630
      9  C5         8.0360  -17.5170   -9.6600 C.3     1  MOL1        0.0510
     10  C1         5.3800  -16.4100   -7.0340 C.3     1  MOL1        0.0060
     11  N2         6.0250  -17.0630   -8.1650 N.am    1  MOL1       -0.3590
     12  C3         7.3970  -16.8200   -8.4930 C.2     1  MOL1        0.2220
     13  O4         8.0810  -16.0190   -7.8000 O.2     1  MOL1       -0.2750
     14  N7        10.3300  -18.4250   -9.5000 N.am    1  MOL1       -0.3460
     15  C8        11.2470  -17.9440   -8.5150 C.2     1  MOL1        0.2580
     16  O9        10.8560  -17.7210   -7.3380 O.2     1  MOL1       -0.2710
     17 C10        12.6860  -17.7130   -8.8670 C.3     1  MOL1        0.1670
     18 O11        13.4800  -17.6230   -7.6870 O.3     1  MOL1       -0.4800
     19 C12        14.8700  -17.7670   -7.7170 C.ar    1  MOL1        0.1660
     20 C13        15.4700  -19.0030   -8.0490 C.ar    1  MOL1        0.0120
     21 C21        16.8700  -19.0810   -8.1430 C.ar    1  MOL1       -0.0540
     22 C22        17.6620  -17.9670   -7.8660 C.ar    1  MOL1       -0.0580
     23 C23        17.0690  -16.7620   -7.4900 C.ar    1  MOL1       -0.0160
     24 C24        15.6690  -16.6530   -7.4080 C.ar    1  MOL1        0.1610
     25 C14        14.6470  -20.2460   -8.3030 C.3     1  MOL1        0.0280
     26 N15        14.3580  -20.9420   -7.0330 N.3     1  MOL1       -0.2870
     27 C16        14.4290  -22.4050   -7.1900 C.3     1  MOL1        0.0640
     28 C17        12.9460  -22.5790   -6.9260 C.3     1  MOL1        0.2720
     29 F18        12.6660  -23.2490   -5.7480 F       1  MOL1       -0.2040
     30 F19        12.2360  -23.0460   -8.0200 F       1  MOL1       -0.2040
     31 C20        12.9120  -21.0700   -6.7850 C.3     1  MOL1        0.0640
     32 O25        15.0340  -15.4600   -7.0320 O.3     1  MOL1       -0.4930
     33 C26        14.5940  -14.4600   -7.9450 C.3     1  MOL1        0.0780
@<TRIPOS>BOND
     1     4     3   ar
     2     4     5   ar
     3     3     2   ar
     4     6     5    1
     5     5     7   ar
     6     2     1   ar
     7     7     1   ar
     8     1     8    1
     9     9     8    1
    10     9    12    1
    11    14     8    1
    12    14    15   am
    13    17    15    1
    14    17    18    1
    15    15    16    2
    16    12    11   am
    17    12    13    2
    18    25    20    1
    19    25    26    1
    20    11    10    1
    21    21    20   ar
    22    21    22   ar
    23    20    19   ar
    24    30    28    1
    25    33    32    1
    26    22    23   ar
    27    19    18    1
    28    19    24   ar
    29    23    24   ar
    30    24    32    1
    31    27    26    1
    32    27    28    1
    33    26    31    1
    34    28    31    1
    35    28    29    1
