@<TRIPOS>MOLECULE
L3024_0_out.pdbqt
 33 35 0 0 0
SMALL
GASTEIGER

@<TRIPOS>ATOM
      1 C27        15.4780  -18.5080   -8.0590 C.ar    1  MOL1       -0.0240
      2 C28        15.3500  -17.4010   -7.2010 C.ar    1  MOL1       -0.0570
      3 C29        16.0980  -16.2400   -7.4260 C.ar    1  MOL1       -0.0610
      4 C30        16.9810  -16.1740   -8.5070 C.ar    1  MOL1       -0.0480
      5 C31        17.1160  -17.2670   -9.3710 C.ar    1  MOL1        0.0180
      6 Br32       18.3080  -17.1670  -10.8640 Br      1  MOL1       -0.0510
      7 C33        16.3730  -18.4300   -9.1460 C.ar    1  MOL1       -0.0430
      8  C6        14.7200  -19.7840   -7.7670 C.3     1  MOL1        0.0630
      9  C5        15.6430  -21.0010   -7.9570 C.3     1  MOL1        0.0510
     10  C1        13.5470  -23.9050   -6.4260 C.3     1  MOL1        0.0060
     11  N2        14.2950  -22.6660   -6.5790 N.am    1  MOL1       -0.3590
     12  C3        14.8870  -22.2920   -7.8280 C.2     1  MOL1        0.2220
     13  O4        14.7730  -23.0460   -8.8330 O.2     1  MOL1       -0.2750
     14  N7        13.5440  -19.8870   -8.6380 N.am    1  MOL1       -0.3460
     15  C8        12.2220  -20.0720   -8.1270 C.2     1  MOL1        0.2580
     16  O9        12.0280  -20.1630   -6.8860 O.2     1  MOL1       -0.2710
     17 C10        11.0510  -20.1450   -9.0600 C.3     1  MOL1        0.1670
     18 O11         9.8680  -19.6840   -8.4130 O.3     1  MOL1       -0.4800
     19 C12         9.1460  -18.5840   -8.8830 C.ar    1  MOL1        0.1660
     20 C13         8.2570  -18.7050   -9.9760 C.ar    1  MOL1        0.0120
     21 C21         7.4930  -17.5930  -10.3650 C.ar    1  MOL1       -0.0540
     22 C22         7.6420  -16.3680   -9.7130 C.ar    1  MOL1       -0.0580
     23 C23         8.5560  -16.2380   -8.6680 C.ar    1  MOL1       -0.0160
     24 C24         9.3190  -17.3430   -8.2480 C.ar    1  MOL1        0.1610
     25 C14         8.1080  -20.0020  -10.7410 C.3     1  MOL1        0.0280
     26 N15         6.8840  -20.7120  -10.3170 N.3     1  MOL1       -0.2870
     27 C16         6.2330  -20.0390   -9.1800 C.3     1  MOL1        0.0640
     28 C17         6.5080  -21.1970   -8.2420 C.3     1  MOL1        0.2720
     29 F18         5.3660  -21.8570   -7.8230 F       1  MOL1       -0.2040
     30 F19         7.3860  -20.8870   -7.2160 F       1  MOL1       -0.2040
     31 C20         7.1810  -21.8520   -9.4320 C.3     1  MOL1        0.0640
     32 O25        10.2490  -17.2530   -7.2020 O.3     1  MOL1       -0.4930
     33 C26        11.5560  -16.7040   -7.3310 C.3     1  MOL1        0.0780
@<TRIPOS>BOND
     1     6     5    1
     2    25    26    1
     3    25    20    1
     4    21    20   ar
     5    21    22   ar
     6    26    31    1
     7    26    27    1
     8    20    19   ar
     9    22    23   ar
    10    31    28    1
    11     5     7   ar
    12     5     4   ar
    13    27    28    1
    14     7     1   ar
    15    17    18    1
    16    17    15    1
    17    19    18    1
    18    19    24   ar
    19    13    12    2
    20    23    24   ar
    21    14    15   am
    22    14     8    1
    23     4     3   ar
    24    24    32    1
    25    28    29    1
    26    28    30    1
    27    15    16    2
    28     1     8    1
    29     1     2   ar
    30     9    12    1
    31     9     8    1
    32    12    11   am
    33     3     2   ar
    34    33    32    1
    35    11    10    1
