@<TRIPOS>MOLECULE
L3024_0_out.pdbqt
 33 35 0 0 0
SMALL
GASTEIGER

@<TRIPOS>ATOM
      1 C27         7.8000  -17.8390   -9.3200 C.ar    1  MOL1       -0.0240
      2 C28         7.7100  -17.1130  -10.5220 C.ar    1  MOL1       -0.0570
      3 C29         6.7360  -16.1210  -10.6780 C.ar    1  MOL1       -0.0610
      4 C30         5.8440  -15.8440   -9.6380 C.ar    1  MOL1       -0.0480
      5 C31         5.9250  -16.5560   -8.4360 C.ar    1  MOL1        0.0180
      6 Br32        4.7180  -16.1610   -7.0060 Br      1  MOL1       -0.0510
      7 C33         6.8940  -17.5520   -8.2780 C.ar    1  MOL1       -0.0430
      8  C6         8.8080  -18.9590   -9.1850 C.3     1  MOL1        0.0630
      9  C5         8.2100  -20.1110   -8.3580 C.3     1  MOL1        0.0510
     10  C1         6.2690  -22.5140  -10.7320 C.3     1  MOL1        0.0060
     11  N2         6.6130  -21.3840   -9.8810 N.am    1  MOL1       -0.3590
     12  C3         7.8800  -21.2950   -9.2210 C.2     1  MOL1        0.2220
     13  O4         8.7330  -22.2130   -9.3630 O.2     1  MOL1       -0.2750
     14  N7        10.0400  -18.4620   -8.5620 N.am    1  MOL1       -0.3460
     15  C8        11.2920  -18.4330   -9.2510 C.2     1  MOL1        0.2580
     16  O9        11.3750  -18.8510  -10.4360 O.2     1  MOL1       -0.2710
     17 C10        12.5160  -17.8900   -8.5760 C.3     1  MOL1        0.1670
     18 O11        13.5270  -18.8920   -8.4960 O.3     1  MOL1       -0.4800
     19 C12        13.8170  -19.5590   -7.3020 C.ar    1  MOL1        0.1660
     20 C13        14.7480  -19.0320   -6.3780 C.ar    1  MOL1        0.0120
     21 C21        14.9500  -19.6950   -5.1560 C.ar    1  MOL1       -0.0540
     22 C22        14.2770  -20.8840   -4.8750 C.ar    1  MOL1       -0.0580
     23 C23        13.3960  -21.4280   -5.8100 C.ar    1  MOL1       -0.0160
     24 C24        13.1620  -20.7720   -7.0330 C.ar    1  MOL1        0.1610
     25 C14        15.5360  -17.7750   -6.6700 C.3     1  MOL1        0.0280
     26 N15        15.5950  -16.9130   -5.4710 N.3     1  MOL1       -0.2870
     27 C16        15.6460  -15.4860   -5.8310 C.3     1  MOL1        0.0640
     28 C17        17.0490  -15.3220   -5.2810 C.3     1  MOL1        0.2720
     29 F18        17.1180  -14.5000   -4.1700 F       1  MOL1       -0.2040
     30 F19        17.9980  -15.0370   -6.2500 F       1  MOL1       -0.2040
     31 C20        16.9640  -16.7960   -4.9380 C.3     1  MOL1        0.0640
     32 O25        12.2860  -21.2860   -7.9990 O.3     1  MOL1       -0.4930
     33 C26        11.9170  -22.6570   -8.1050 C.3     1  MOL1        0.0780
@<TRIPOS>BOND
     1    10    11    1
     2     3     2   ar
     3     3     4   ar
     4     2     1   ar
     5    16    15    2
     6    11    12   am
     7     4     5   ar
     8    13    12    2
     9     1     8    1
    10     1     7   ar
    11    15    17    1
    12    15    14   am
    13    12     9    1
    14     8    14    1
    15     8     9    1
    16    17    18    1
    17    18    19    1
    18     5     7   ar
    19     5     6    1
    20    33    32    1
    21    32    24    1
    22    19    24   ar
    23    19    20   ar
    24    24    23   ar
    25    25    20    1
    26    25    26    1
    27    20    21   ar
    28    30    28    1
    29    27    26    1
    30    27    28    1
    31    23    22   ar
    32    26    31    1
    33    28    31    1
    34    28    29    1
    35    21    22   ar
