@<TRIPOS>MOLECULE
L3024_0_out.pdbqt
 33 35 0 0 0
SMALL
GASTEIGER

@<TRIPOS>ATOM
      1 C27         9.8930  -19.1720   -8.2910 C.ar    1  MOL1       -0.0240
      2 C28         8.9890  -20.1970   -7.9580 C.ar    1  MOL1       -0.0570
      3 C29         7.6290  -20.0660   -8.2580 C.ar    1  MOL1       -0.0610
      4 C30         7.1580  -18.9120   -8.8900 C.ar    1  MOL1       -0.0480
      5 C31         8.0470  -17.8860   -9.2300 C.ar    1  MOL1        0.0180
      6 Br32        7.4060  -16.3160  -10.1150 Br      1  MOL1       -0.0510
      7 C33         9.4070  -18.0120   -8.9270 C.ar    1  MOL1       -0.0430
      8  C6        11.3500  -19.2910   -7.8990 C.3     1  MOL1        0.0630
      9  C5        11.5660  -20.5560   -7.0490 C.3     1  MOL1        0.0510
     10  C1        15.0280  -21.7660   -8.3640 C.3     1  MOL1        0.0060
     11  N2        13.9660  -20.9360   -7.8120 N.am    1  MOL1       -0.3590
     12  C3        12.6360  -21.4340   -7.6310 C.2     1  MOL1        0.2220
     13  O4        12.3550  -22.6190   -7.9570 O.2     1  MOL1       -0.2750
     14  N7        11.7770  -18.0950   -7.1640 N.am    1  MOL1       -0.3460
     15  C8        12.9010  -17.3070   -7.5640 C.2     1  MOL1        0.2580
     16  O9        13.5760  -17.6310   -8.5770 O.2     1  MOL1       -0.2710
     17 C10        13.2790  -16.0790   -6.7910 C.3     1  MOL1        0.1670
     18 O11        14.6900  -16.0270   -6.5960 O.3     1  MOL1       -0.4800
     19 C12        15.2970  -16.5180   -5.4370 C.ar    1  MOL1        0.1660
     20 C13        16.1300  -17.6590   -5.4750 C.ar    1  MOL1        0.0120
     21 C21        16.7830  -18.0700   -4.3010 C.ar    1  MOL1       -0.0540
     22 C22        16.5740  -17.3920   -3.1000 C.ar    1  MOL1       -0.0580
     23 C23        15.7110  -16.2970   -3.0540 C.ar    1  MOL1       -0.0160
     24 C24        15.0620  -15.8540   -4.2220 C.ar    1  MOL1        0.1610
     25 C14        16.3390  -18.4510   -6.7460 C.3     1  MOL1        0.0280
     26 N15        17.5280  -17.9590   -7.4720 N.3     1  MOL1       -0.2870
     27 C16        17.4120  -18.1890   -8.9220 C.3     1  MOL1        0.0640
     28 C17        18.5590  -19.1800   -8.9310 C.3     1  MOL1        0.2720
     29 F18        19.6710  -18.7360   -9.6260 F       1  MOL1       -0.2040
     30 F19        18.1770  -20.4730   -9.2500 F       1  MOL1       -0.2040
     31 C20        18.6390  -18.9270   -7.4380 C.3     1  MOL1        0.0640
     32 O25        14.1870  -14.7580   -4.2180 O.3     1  MOL1       -0.4930
     33 C26        13.4680  -14.3050   -3.0750 C.3     1  MOL1        0.0780
@<TRIPOS>BOND
     1     6     5    1
     2    29    28    1
     3    30    28    1
     4     5     7   ar
     5     5     4   ar
     6    28    27    1
     7    28    31    1
     8     7     1   ar
     9    27    26    1
    10     4     3   ar
    11    16    15    2
    12    10    11    1
    13     1     2   ar
    14     1     8    1
    15     3     2   ar
    16    13    12    2
    17     8    14    1
    18     8     9    1
    19    11    12   am
    20    12     9    1
    21    15    14   am
    22    15    17    1
    23    26    31    1
    24    26    25    1
    25    17    18    1
    26    25    20    1
    27    18    19    1
    28    20    19   ar
    29    20    21   ar
    30    19    24   ar
    31    21    22   ar
    32    24    32    1
    33    24    23   ar
    34    32    33    1
    35    22    23   ar
