@<TRIPOS>MOLECULE
L3024_0_out.pdbqt
 33 35 0 0 0
SMALL
GASTEIGER

@<TRIPOS>ATOM
      1 C27         7.6080  -17.4300  -10.5160 C.ar    1  MOL1       -0.0240
      2 C28         7.7830  -17.9900  -11.7950 C.ar    1  MOL1       -0.0570
      3 C29         7.1490  -17.4260  -12.9070 C.ar    1  MOL1       -0.0610
      4 C30         6.3360  -16.3000  -12.7540 C.ar    1  MOL1       -0.0480
      5 C31         6.1560  -15.7310  -11.4880 C.ar    1  MOL1        0.0180
      6 Br32        5.0610  -14.1760  -11.2840 Br      1  MOL1       -0.0510
      7 C33         6.7840  -16.2950  -10.3730 C.ar    1  MOL1       -0.0430
      8  C6         8.2390  -18.0890   -9.3080 C.3     1  MOL1        0.0630
      9  C5         7.1430  -18.6110   -8.3610 C.3     1  MOL1        0.0510
     10  C1         7.7930  -22.3170   -9.3700 C.3     1  MOL1        0.0060
     11  N2         7.8670  -20.8650   -9.3010 N.am    1  MOL1       -0.3590
     12  C3         7.0350  -20.1080   -8.4150 C.2     1  MOL1        0.2220
     13  O4         6.2050  -20.6960   -7.6700 O.2     1  MOL1       -0.2750
     14  N7         9.1150  -17.1410   -8.6120 N.am    1  MOL1       -0.3460
     15  C8        10.2740  -17.5560   -7.8860 C.2     1  MOL1        0.2580
     16  O9        10.5760  -18.7770   -7.8150 O.2     1  MOL1       -0.2710
     17 C10        11.1510  -16.5430   -7.2140 C.3     1  MOL1        0.1670
     18 O11        12.3510  -17.1540   -6.7460 O.3     1  MOL1       -0.4800
     19 C12        13.6140  -16.7210   -7.1600 C.ar    1  MOL1        0.1660
     20 C13        14.3840  -17.4780   -8.0720 C.ar    1  MOL1        0.0120
     21 C21        15.6120  -16.9670   -8.5220 C.ar    1  MOL1       -0.0540
     22 C22        16.0920  -15.7490   -8.0390 C.ar    1  MOL1       -0.0580
     23 C23        15.3540  -15.0270   -7.1010 C.ar    1  MOL1       -0.0160
     24 C24        14.1110  -15.5100   -6.6510 C.ar    1  MOL1        0.1610
     25 C14        13.9210  -18.8270   -8.5770 C.3     1  MOL1        0.0280
     26 N15        14.6890  -19.9110   -7.9290 N.3     1  MOL1       -0.2870
     27 C16        13.9080  -21.1580   -7.8540 C.3     1  MOL1        0.0640
     28 C17        13.8440  -21.1130   -6.3400 C.3     1  MOL1        0.2720
     29 F18        14.5430  -22.1370   -5.7250 F       1  MOL1       -0.2040
     30 F19        12.5650  -20.9280   -5.8410 F       1  MOL1       -0.2040
     31 C20        14.6370  -19.8260   -6.4590 C.3     1  MOL1        0.0640
     32 O25        13.3390  -14.8150   -5.7080 O.3     1  MOL1       -0.4930
     33 C26        13.8460  -14.2750   -4.4920 C.3     1  MOL1        0.0780
@<TRIPOS>BOND
     1     3     4   ar
     2     3     2   ar
     3     4     5   ar
     4     2     1   ar
     5     5     6    1
     6     5     7   ar
     7     1     7   ar
     8     1     8    1
     9    10    11    1
    10     8    14    1
    11     8     9    1
    12    11    12   am
    13    14    15   am
    14    25    20    1
    15    25    26    1
    16    21    20   ar
    17    21    22   ar
    18    12     9    1
    19    12    13    2
    20    20    19   ar
    21    22    23   ar
    22    26    27    1
    23    26    31    1
    24    15    16    2
    25    15    17    1
    26    27    28    1
    27    17    18    1
    28    19    18    1
    29    19    24   ar
    30    23    24   ar
    31    24    32    1
    32    31    28    1
    33    28    30    1
    34    28    29    1
    35    32    33    1
