@<TRIPOS>MOLECULE
L3024_0_out.pdbqt
 33 35 0 0 0
SMALL
GASTEIGER

@<TRIPOS>ATOM
      1 C27        15.2100  -20.6900   -0.1260 C.ar    1  MOL1       -0.0240
      2 C28        13.8790  -21.0780    0.1150 C.ar    1  MOL1       -0.0570
      3 C29        13.6000  -22.3060    0.7240 C.ar    1  MOL1       -0.0610
      4 C30        14.6430  -23.1570    1.0980 C.ar    1  MOL1       -0.0480
      5 C31        15.9720  -22.7810    0.8670 C.ar    1  MOL1        0.0180
      6 Br32       17.4000  -23.9370    1.4000 Br      1  MOL1       -0.0510
      7 C33        16.2550  -21.5570    0.2530 C.ar    1  MOL1       -0.0430
      8  C6        15.5010  -19.3940   -0.8510 C.3     1  MOL1        0.0630
      9  C5        14.3530  -18.3940   -0.6260 C.3     1  MOL1        0.0510
     10  C1        14.3060  -14.9810    1.2510 C.3     1  MOL1        0.0060
     11  N2        13.8890  -16.1590    0.5050 N.am    1  MOL1       -0.3590
     12  C3        14.8160  -17.1850    0.1350 C.2     1  MOL1        0.2220
     13  O4        16.0330  -17.0810    0.4490 O.2     1  MOL1       -0.2750
     14  N7        15.6940  -19.6450   -2.2840 N.am    1  MOL1       -0.3460
     15  C8        16.5010  -18.8030   -3.1100 C.2     1  MOL1        0.2580
     16  O9        17.0740  -17.7940   -2.6210 O.2     1  MOL1       -0.2710
     17 C10        16.6850  -19.1210   -4.5640 C.3     1  MOL1        0.1670
     18 O11        17.6400  -18.2380   -5.1500 O.3     1  MOL1       -0.4800
     19 C12        17.4230  -17.6300   -6.3890 C.ar    1  MOL1        0.1660
     20 C13        16.8650  -16.3340   -6.4790 C.ar    1  MOL1        0.0120
     21 C21        16.7380  -15.7290   -7.7410 C.ar    1  MOL1       -0.0540
     22 C22        17.1130  -16.4150   -8.8960 C.ar    1  MOL1       -0.0580
     23 C23        17.6170  -17.7120   -8.8090 C.ar    1  MOL1       -0.0160
     24 C24        17.7720  -18.3320   -7.5540 C.ar    1  MOL1        0.1610
     25 C14        16.3980  -15.5800   -5.2540 C.3     1  MOL1        0.0280
     26 N15        14.9900  -15.9110   -4.9500 N.3     1  MOL1       -0.2870
     27 C16        14.0840  -14.8080   -5.3130 C.3     1  MOL1        0.0640
     28 C17        13.7060  -14.5460   -3.8690 C.3     1  MOL1        0.2720
     29 F18        12.3830  -14.8330   -3.5800 F       1  MOL1       -0.2040
     30 F19        14.1290  -13.3140   -3.3960 F       1  MOL1       -0.2040
     31 C20        14.6570  -15.6780   -3.5340 C.3     1  MOL1        0.0640
     32 O25        18.2730  -19.6350   -7.4230 O.3     1  MOL1       -0.4930
     33 C26        17.5570  -20.8130   -7.7780 C.3     1  MOL1        0.0780
@<TRIPOS>BOND
     1    22    23   ar
     2    22    21   ar
     3    23    24   ar
     4    33    32    1
     5    21    20   ar
     6    24    32    1
     7    24    19   ar
     8    20    19   ar
     9    20    25    1
    10    19    18    1
    11    27    26    1
    12    27    28    1
    13    25    26    1
    14    18    17    1
    15    26    31    1
    16    17    15    1
    17    28    29    1
    18    28    31    1
    19    28    30    1
    20    15    16    2
    21    15    14   am
    22    14     8    1
    23     8     9    1
    24     8     1    1
    25     9    12    1
    26     1     2   ar
    27     1     7   ar
    28     2     3   ar
    29    12    13    2
    30    12    11   am
    31     7     5   ar
    32    11    10    1
    33     3     4   ar
    34     5     4   ar
    35     5     6    1
