@<TRIPOS>MOLECULE
L3024_0_out.pdbqt
 33 35 0 0 0
SMALL
GASTEIGER

@<TRIPOS>ATOM
      1 C27        16.7480  -17.7690   -6.3230 C.ar    1  MOL1       -0.0240
      2 C28        17.9600  -17.1700   -5.9330 C.ar    1  MOL1       -0.0570
      3 C29        18.1400  -15.7890   -6.0620 C.ar    1  MOL1       -0.0610
      4 C30        17.1150  -14.9930   -6.5800 C.ar    1  MOL1       -0.0480
      5 C31        15.9040  -15.5750   -6.9690 C.ar    1  MOL1        0.0180
      6 Br32       14.4930  -14.4820   -7.6580 Br      1  MOL1       -0.0510
      7 C33        15.7210  -16.9560   -6.8470 C.ar    1  MOL1       -0.0430
      8  C6        16.5870  -19.2720   -6.2490 C.3     1  MOL1        0.0630
      9  C5        16.1760  -19.8270   -7.6240 C.3     1  MOL1        0.0510
     10  C1        19.6300  -20.0840   -9.4070 C.3     1  MOL1        0.0060
     11  N2        18.5550  -20.2340   -8.4360 N.am    1  MOL1       -0.3590
     12  C3        17.2660  -19.6450   -8.6400 C.2     1  MOL1        0.2220
     13  O4        17.0370  -18.9690   -9.6800 O.2     1  MOL1       -0.2750
     14  N7        15.5920  -19.6270   -5.2300 N.am    1  MOL1       -0.3460
     15  C8        15.9090  -19.6980   -3.8390 C.2     1  MOL1        0.2580
     16  O9        17.0800  -19.4620   -3.4400 O.2     1  MOL1       -0.2710
     17 C10        14.8470  -20.0400   -2.8360 C.3     1  MOL1        0.1670
     18 O11        15.3620  -19.9400   -1.5110 O.3     1  MOL1       -0.4800
     19 C12        14.6040  -19.4180   -0.4590 C.ar    1  MOL1        0.1660
     20 C13        14.5750  -18.0290   -0.1980 C.ar    1  MOL1        0.0120
     21 C21        13.7380  -17.5400    0.8190 C.ar    1  MOL1       -0.0540
     22 C22        12.9800  -18.4170    1.5950 C.ar    1  MOL1       -0.0580
     23 C23        13.0490  -19.7920    1.3690 C.ar    1  MOL1       -0.0160
     24 C24        13.8650  -20.3030    0.3420 C.ar    1  MOL1        0.1610
     25 C14        15.4230  -17.0530   -0.9830 C.3     1  MOL1        0.0280
     26 N15        14.5730  -16.2190   -1.8580 N.3     1  MOL1       -0.2870
     27 C16        15.0200  -16.2750   -3.2600 C.3     1  MOL1        0.0640
     28 C17        15.4220  -14.8140   -3.2680 C.3     1  MOL1        0.2720
     29 F18        14.6440  -14.0280   -4.1010 F       1  MOL1       -0.2040
     30 F19        16.7840  -14.6110   -3.4150 F       1  MOL1       -0.2040
     31 C20        14.9640  -14.7990   -1.8220 C.3     1  MOL1        0.0640
     32 O25        13.9630  -21.6780    0.0830 O.3     1  MOL1       -0.4930
     33 C26        14.8230  -22.5710    0.7830 C.3     1  MOL1        0.0780
@<TRIPOS>BOND
     1    13    12    2
     2    10    11    1
     3    12    11   am
     4    12     9    1
     5     6     5    1
     6     9     8    1
     7     5     7   ar
     8     5     4   ar
     9     7     1   ar
    10     4     3   ar
    11     1     8    1
    12     1     2   ar
    13     8    14    1
    14     3     2   ar
    15    14    15   am
    16    29    28    1
    17    15    16    2
    18    15    17    1
    19    30    28    1
    20    28    27    1
    21    28    31    1
    22    27    26    1
    23    17    18    1
    24    26    31    1
    25    26    25    1
    26    18    19    1
    27    25    20    1
    28    19    20   ar
    29    19    24   ar
    30    20    21   ar
    31    32    24    1
    32    32    33    1
    33    24    23   ar
    34    21    22   ar
    35    23    22   ar
