@<TRIPOS>MOLECULE
L3024_0_out.pdbqt
 33 35 0 0 0
SMALL
GASTEIGER

@<TRIPOS>ATOM
      1 C27         5.1600  -15.5470   -9.5000 C.ar    1  MOL1       -0.0240
      2 C28         4.0210  -15.2330   -8.7370 C.ar    1  MOL1       -0.0570
      3 C29         2.9950  -14.4560   -9.2840 C.ar    1  MOL1       -0.0610
      4 C30         3.0950  -13.9850  -10.5960 C.ar    1  MOL1       -0.0480
      5 C31         4.2220  -14.2920  -11.3670 C.ar    1  MOL1        0.0180
      6 Br32        4.3490  -13.6650  -13.1700 Br      1  MOL1       -0.0510
      7 C33         5.2520  -15.0640  -10.8210 C.ar    1  MOL1       -0.0430
      8  C6         6.2980  -16.3260   -8.8770 C.3     1  MOL1        0.0630
      9  C5         7.5560  -16.2170   -9.7570 C.3     1  MOL1        0.0510
     10  C1         9.8230  -19.3700  -10.0550 C.3     1  MOL1        0.0060
     11  N2         8.8490  -18.3290  -10.3500 N.am    1  MOL1       -0.3590
     12  C3         8.5590  -17.2820   -9.4180 C.2     1  MOL1        0.2220
     13  O4         9.1490  -17.2450   -8.3040 O.2     1  MOL1       -0.2750
     14  N7         5.9140  -17.7310   -8.6980 N.am    1  MOL1       -0.3460
     15  C8         5.1830  -18.1890   -7.5590 C.2     1  MOL1        0.2580
     16  O9         4.8490  -17.3820   -6.6510 O.2     1  MOL1       -0.2710
     17 C10         4.7930  -19.6320   -7.4380 C.3     1  MOL1        0.1670
     18 O11         3.4650  -19.8310   -7.9190 O.3     1  MOL1       -0.4800
     19 C12         3.1150  -20.9460   -8.6860 C.ar    1  MOL1        0.1660
     20 C13         1.7860  -21.4300   -8.7070 C.ar    1  MOL1        0.0120
     21 C21         1.4620  -22.5040   -9.5530 C.ar    1  MOL1       -0.0540
     22 C22         2.4470  -23.1190  -10.3260 C.ar    1  MOL1       -0.0580
     23 C23         3.7670  -22.6720  -10.2650 C.ar    1  MOL1       -0.0160
     24 C24         4.1120  -21.5850   -9.4410 C.ar    1  MOL1        0.1610
     25 C14         0.7030  -20.8230   -7.8430 C.3     1  MOL1        0.0280
     26 N15        -0.6280  -21.2890   -8.2810 N.3     1  MOL1       -0.2870
     27 C16        -1.4390  -20.1840   -8.8200 C.3     1  MOL1        0.0640
     28 C17        -2.4440  -20.2730   -7.6880 C.3     1  MOL1        0.2720
     29 F18        -3.7000  -20.6890   -8.0930 F       1  MOL1       -0.2040
     30 F19        -2.4590  -19.1570   -6.8680 F       1  MOL1       -0.2040
     31 C20        -1.5760  -21.3980   -7.1590 C.3     1  MOL1        0.0640
     32 O25         5.4270  -21.1060   -9.3500 O.3     1  MOL1       -0.4930
     33 C26         6.3080  -20.9580  -10.4590 C.3     1  MOL1        0.0780
@<TRIPOS>BOND
     1     6     5    1
     2     5     7   ar
     3     5     4   ar
     4     7     1   ar
     5     4     3   ar
     6    33    32    1
     7    11    10    1
     8    11    12   am
     9    22    23   ar
    10    22    21   ar
    11    23    24   ar
    12     9    12    1
    13     9     8    1
    14    21    20   ar
    15     1     8    1
    16     1     2   ar
    17    24    32    1
    18    24    19   ar
    19    12    13    2
    20     3     2   ar
    21     8    14    1
    22    27    26    1
    23    27    28    1
    24    20    19   ar
    25    20    25    1
    26    14    15   am
    27    19    18    1
    28    26    25    1
    29    26    31    1
    30    29    28    1
    31    18    17    1
    32    28    31    1
    33    28    30    1
    34    15    17    1
    35    15    16    2
