@<TRIPOS>MOLECULE
L3024_0_out.pdbqt
 33 35 0 0 0
SMALL
GASTEIGER

@<TRIPOS>ATOM
      1 C27         6.6250  -18.5620   -8.8960 C.ar    1  MOL1       -0.0240
      2 C28         5.7140  -18.5760   -7.8240 C.ar    1  MOL1       -0.0570
      3 C29         4.9080  -19.6970   -7.5940 C.ar    1  MOL1       -0.0610
      4 C30         5.0040  -20.8120   -8.4310 C.ar    1  MOL1       -0.0480
      5 C31         5.9080  -20.8130   -9.4990 C.ar    1  MOL1        0.0180
      6 Br32        6.0530  -22.3490  -10.6300 Br      1  MOL1       -0.0510
      7 C33         6.7110  -19.6920   -9.7350 C.ar    1  MOL1       -0.0430
      8  C6         7.4400  -17.3190   -9.1810 C.3     1  MOL1        0.0630
      9  C5         7.2980  -16.9240  -10.6620 C.3     1  MOL1        0.0510
     10  C1         4.8970  -14.3830  -12.3800 C.3     1  MOL1        0.0060
     11  N2         5.9490  -15.3630  -12.1570 N.am    1  MOL1       -0.3590
     12  C3         6.2120  -15.9060  -10.8580 C.2     1  MOL1        0.2220
     13  O4         5.5270  -15.5320   -9.8670 O.2     1  MOL1       -0.2750
     14  N7         8.8490  -17.5460   -8.8410 N.am    1  MOL1       -0.3460
     15  C8         9.7960  -18.0540   -9.7830 C.2     1  MOL1        0.2580
     16  O9         9.4350  -18.3370  -10.9560 O.2     1  MOL1       -0.2710
     17 C10        11.2300  -18.2420   -9.3900 C.3     1  MOL1        0.1670
     18 O11        11.3520  -18.3230   -7.9710 O.3     1  MOL1       -0.4800
     19 C12        12.3380  -19.0980   -7.3550 C.ar    1  MOL1        0.1660
     20 C13        12.1770  -20.4940   -7.1950 C.ar    1  MOL1        0.0120
     21 C21        13.2270  -21.2450   -6.6420 C.ar    1  MOL1       -0.0540
     22 C22        14.3970  -20.6190   -6.2110 C.ar    1  MOL1       -0.0580
     23 C23        14.5330  -19.2350   -6.3240 C.ar    1  MOL1       -0.0160
     24 C24        13.5030  -18.4630   -6.8940 C.ar    1  MOL1        0.1610
     25 C14        10.9030  -21.2000   -7.6010 C.3     1  MOL1        0.0280
     26 N15        11.0370  -21.7660   -8.9590 N.3     1  MOL1       -0.2870
     27 C16         9.7500  -21.7690   -9.6740 C.3     1  MOL1        0.0640
     28 C17         9.6850  -23.2840   -9.7000 C.3     1  MOL1        0.2720
     29 F18         9.7890  -23.8220  -10.9710 F       1  MOL1       -0.2040
     30 F19         8.6460  -23.8110   -8.9510 F       1  MOL1       -0.2040
     31 C20        11.0040  -23.2390   -8.9530 C.3     1  MOL1        0.0640
     32 O25        13.6000  -17.0710   -7.0250 O.3     1  MOL1       -0.4930
     33 C26        14.3730  -16.4070   -8.0200 C.3     1  MOL1        0.0780
@<TRIPOS>BOND
     1    10    11    1
     2    11    12   am
     3    29    28    1
     4    16    15    2
     5    12     9    1
     6    12    13    2
     7     9     8    1
     8     6     5    1
     9    15    17    1
    10    15    14   am
    11     7     5   ar
    12     7     1   ar
    13    28    27    1
    14    28    31    1
    15    28    30    1
    16    27    26    1
    17     5     4   ar
    18    17    18    1
    19     8     1    1
    20     8    14    1
    21    26    31    1
    22    26    25    1
    23     1     2   ar
    24     4     3   ar
    25    33    32    1
    26    18    19    1
    27     2     3   ar
    28    25    20    1
    29    19    20   ar
    30    19    24   ar
    31    20    21   ar
    32    32    24    1
    33    24    23   ar
    34    21    22   ar
    35    23    22   ar
