@<TRIPOS>MOLECULE
L3024_0_out.pdbqt
 33 35 0 0 0
SMALL
GASTEIGER

@<TRIPOS>ATOM
      1 C27        15.6440  -17.1030   -5.8870 C.ar    1  MOL1       -0.0240
      2 C28        15.4020  -15.7250   -6.0280 C.ar    1  MOL1       -0.0570
      3 C29        15.1250  -14.9370   -4.9050 C.ar    1  MOL1       -0.0610
      4 C30        15.0870  -15.5160   -3.6340 C.ar    1  MOL1       -0.0480
      5 C31        15.3290  -16.8850   -3.4800 C.ar    1  MOL1        0.0180
      6 Br32       15.2980  -17.6730   -1.7360 Br      1  MOL1       -0.0510
      7 C33        15.6010  -17.6770   -4.6000 C.ar    1  MOL1       -0.0430
      8  C6        15.8710  -17.9610   -7.1130 C.3     1  MOL1        0.0630
      9  C5        17.1750  -17.5430   -7.8160 C.3     1  MOL1        0.0510
     10  C1        19.5850  -19.6990   -9.9870 C.3     1  MOL1        0.0060
     11  N2        18.8530  -18.5690   -9.4330 N.am    1  MOL1       -0.3590
     12  C3        17.9060  -18.7300   -8.3720 C.2     1  MOL1        0.2220
     13  O4        17.6820  -19.8750   -7.8920 O.2     1  MOL1       -0.2750
     14  N7        14.7310  -17.8490   -8.0290 N.am    1  MOL1       -0.3460
     15  C8        13.7890  -18.9070   -8.2180 C.2     1  MOL1        0.2580
     16  O9        13.9200  -19.9930   -7.5940 O.2     1  MOL1       -0.2710
     17 C10        12.6260  -18.7300   -9.1480 C.3     1  MOL1        0.1670
     18 O11        11.3970  -18.9200   -8.4520 O.3     1  MOL1       -0.4800
     19 C12        10.2770  -18.1200   -8.6930 C.ar    1  MOL1        0.1660
     20 C13         9.4070  -18.3870   -9.7750 C.ar    1  MOL1        0.0120
     21 C21         8.2500  -17.6060   -9.9340 C.ar    1  MOL1       -0.0540
     22 C22         7.9850  -16.5490   -9.0640 C.ar    1  MOL1       -0.0580
     23 C23         8.8710  -16.2560   -8.0260 C.ar    1  MOL1       -0.0160
     24 C24        10.0260  -17.0370   -7.8360 C.ar    1  MOL1        0.1610
     25 C14         9.6890  -19.4910  -10.7700 C.3     1  MOL1        0.0280
     26 N15         8.7190  -20.5940  -10.6070 N.3     1  MOL1       -0.2870
     27 C16         8.6530  -21.0540   -9.2090 C.3     1  MOL1        0.0640
     28 C17         9.2290  -22.4130   -9.5520 C.3     1  MOL1        0.2720
     29 F18         8.3340  -23.4550   -9.3820 F       1  MOL1       -0.2040
     30 F19        10.4750  -22.6480   -8.9950 F       1  MOL1       -0.2040
     31 C20         9.2930  -21.8980  -10.9770 C.3     1  MOL1        0.0640
     32 O25        10.9410  -16.7750   -6.8060 O.3     1  MOL1       -0.4930
     33 C26        11.9790  -15.8030   -6.8790 C.3     1  MOL1        0.0780
@<TRIPOS>BOND
     1    31    26    1
     2    31    28    1
     3    25    26    1
     4    25    20    1
     5    26    27    1
     6    10    11    1
     7    21    20   ar
     8    21    22   ar
     9    20    19   ar
    10    28    29    1
    11    28    27    1
    12    28    30    1
    13    11    12   am
    14    17    18    1
    15    17    15    1
    16    22    23   ar
    17    19    18    1
    18    19    24   ar
    19    12    13    2
    20    12     9    1
    21    15    14   am
    22    15    16    2
    23    14     8    1
    24    23    24   ar
    25    24    32    1
    26     9     8    1
    27     8     1    1
    28    33    32    1
    29     2     1   ar
    30     2     3   ar
    31     1     7   ar
    32     3     4   ar
    33     7     5   ar
    34     4     5   ar
    35     5     6    1
