@<TRIPOS>MOLECULE
L3024_0_out.pdbqt
 33 35 0 0 0
SMALL
GASTEIGER

@<TRIPOS>ATOM
      1 C27        15.3410  -19.7970   -8.6860 C.ar    1  MOL1       -0.0240
      2 C28        15.2230  -21.1920   -8.5490 C.ar    1  MOL1       -0.0570
      3 C29        16.2780  -22.0310   -8.9210 C.ar    1  MOL1       -0.0610
      4 C30        17.4590  -21.4880   -9.4330 C.ar    1  MOL1       -0.0480
      5 C31        17.5910  -20.1010   -9.5720 C.ar    1  MOL1        0.0180
      6 Br32       19.2170  -19.3570  -10.2520 Br      1  MOL1       -0.0510
      7 C33        16.5360  -19.2590   -9.2060 C.ar    1  MOL1       -0.0430
      8  C6        14.1680  -18.9010   -8.3500 C.3     1  MOL1        0.0630
      9  C5        14.4480  -18.1330   -7.0460 C.3     1  MOL1        0.0510
     10  C1        13.6540  -14.4370   -6.1080 C.3     1  MOL1        0.0060
     11  N2        13.9850  -15.8510   -6.0130 N.am    1  MOL1       -0.3590
     12  C3        14.0960  -16.6800   -7.1760 C.2     1  MOL1        0.2220
     13  O4        13.8990  -16.1900   -8.3220 O.2     1  MOL1       -0.2750
     14  N7        12.9410  -19.6950   -8.2280 N.am    1  MOL1       -0.3460
     15  C8        11.7190  -19.3250   -8.8710 C.2     1  MOL1        0.2580
     16  O9        11.6590  -18.2770   -9.5670 O.2     1  MOL1       -0.2710
     17 C10        10.4990  -20.1870   -8.7350 C.3     1  MOL1        0.1670
     18 O11         9.9820  -20.5260  -10.0190 O.3     1  MOL1       -0.4800
     19 C12         8.6990  -21.0530  -10.1860 C.ar    1  MOL1        0.1660
     20 C13         7.5620  -20.2140  -10.2170 C.ar    1  MOL1        0.0120
     21 C21         6.3000  -20.7790  -10.4660 C.ar    1  MOL1       -0.0540
     22 C22         6.1610  -22.1560  -10.6330 C.ar    1  MOL1       -0.0580
     23 C23         7.2780  -22.9890  -10.5520 C.ar    1  MOL1       -0.0160
     24 C24         8.5550  -22.4440  -10.3230 C.ar    1  MOL1        0.1610
     25 C14         7.6660  -18.7220   -9.9880 C.3     1  MOL1        0.0280
     26 N15         7.3540  -18.3940   -8.5820 N.3     1  MOL1       -0.2870
     27 C16         5.9080  -18.2000   -8.3790 C.3     1  MOL1        0.0640
     28 C17         6.0770  -16.7280   -8.0570 C.3     1  MOL1        0.2720
     29 F18         5.7660  -16.4070   -6.7470 F       1  MOL1       -0.2040
     30 F19         5.5030  -15.8830   -8.9930 F       1  MOL1       -0.2040
     31 C20         7.5560  -16.9650   -8.2870 C.3     1  MOL1        0.0640
     32 O25         9.7020  -23.2450  -10.2340 O.3     1  MOL1       -0.4930
     33 C26        10.4090  -23.5090   -9.0260 C.3     1  MOL1        0.0780
@<TRIPOS>BOND
     1    22    23   ar
     2    22    21   ar
     3    23    24   ar
     4    21    20   ar
     5    24    32    1
     6    24    19   ar
     7     6     5    1
     8    32    33    1
     9    20    19   ar
    10    20    25    1
    11    19    18    1
    12    18    17    1
    13    25    26    1
    14     5     4   ar
    15     5     7   ar
    16    16    15    2
    17     4     3   ar
    18     7     1   ar
    19    30    28    1
    20     3     2   ar
    21    15    17    1
    22    15    14   am
    23     1     2   ar
    24     1     8    1
    25    26    27    1
    26    26    31    1
    27    27    28    1
    28     8    14    1
    29     8     9    1
    30    13    12    2
    31    31    28    1
    32    28    29    1
    33    12     9    1
    34    12    11   am
    35    10    11    1
