@<TRIPOS>MOLECULE
L3024_0_out.pdbqt
 33 35 0 0 0
SMALL
GASTEIGER

@<TRIPOS>ATOM
      1 C27         7.1130  -19.7810   -9.8560 C.ar    1  MOL1       -0.0240
      2 C28         7.3540  -19.8400   -8.4710 C.ar    1  MOL1       -0.0570
      3 C29         6.6100  -20.7030   -7.6590 C.ar    1  MOL1       -0.0610
      4 C30         5.6200  -21.5140   -8.2210 C.ar    1  MOL1       -0.0480
      5 C31         5.3720  -21.4670   -9.5970 C.ar    1  MOL1        0.0180
      6 Br32        4.0310  -22.5930  -10.3680 Br      1  MOL1       -0.0510
      7 C33         6.1100  -20.6020  -10.4110 C.ar    1  MOL1       -0.0430
      8  C6         7.8720  -18.7930  -10.7150 C.3     1  MOL1        0.0630
      9  C5         8.9390  -18.0720   -9.8720 C.3     1  MOL1        0.0510
     10  C1        12.8020  -18.5570   -9.7310 C.3     1  MOL1        0.0060
     11  N2        11.4580  -18.0510   -9.4930 N.am    1  MOL1       -0.3590
     12  C3        10.3140  -18.6100  -10.1470 C.2     1  MOL1        0.2220
     13  O4        10.4530  -19.5650  -10.9590 O.2     1  MOL1       -0.2750
     14  N7         6.9470  -17.8250  -11.3140 N.am    1  MOL1       -0.3460
     15  C8         6.6250  -16.5800  -10.6890 C.2     1  MOL1        0.2580
     16  O9         7.1320  -16.2780   -9.5760 O.2     1  MOL1       -0.2710
     17 C10         5.6930  -15.6150  -11.3580 C.3     1  MOL1        0.1670
     18 O11         5.2890  -14.5970  -10.4440 O.3     1  MOL1       -0.4800
     19 C12         3.9820  -14.5130   -9.9580 C.ar    1  MOL1        0.1660
     20 C13         2.9520  -13.9230  -10.7270 C.ar    1  MOL1        0.0120
     21 C21         1.6370  -13.9320  -10.2330 C.ar    1  MOL1       -0.0540
     22 C22         1.3560  -14.4710   -8.9780 C.ar    1  MOL1       -0.0580
     23 C23         2.3820  -15.0070   -8.1990 C.ar    1  MOL1       -0.0160
     24 C24         3.7040  -15.0290   -8.6820 C.ar    1  MOL1        0.1610
     25 C14         3.2280  -13.2810  -12.0690 C.3     1  MOL1        0.0280
     26 N15         3.8410  -11.9500  -11.8870 N.3     1  MOL1       -0.2870
     27 C16         3.0160  -11.0860  -11.0260 C.3     1  MOL1        0.0640
     28 C17         2.7090  -10.1260  -12.1580 C.3     1  MOL1        0.2720
     29 F18         3.2620   -8.8690  -11.9860 F       1  MOL1       -0.2040
     30 F19         1.3730  -10.1060  -12.5250 F       1  MOL1       -0.2040
     31 C20         3.5550  -11.0470  -13.0150 C.3     1  MOL1        0.0640
     32 O25         4.7630  -15.5570   -7.9300 O.3     1  MOL1       -0.4930
     33 C26         4.6020  -16.3690   -6.7720 C.3     1  MOL1        0.0780
@<TRIPOS>BOND
     1    31    28    1
     2    31    26    1
     3    30    28    1
     4    28    29    1
     5    28    27    1
     6    25    26    1
     7    25    20    1
     8    26    27    1
     9    17    15    1
    10    17    18    1
    11    14     8    1
    12    14    15   am
    13    13    12    2
    14    20    21   ar
    15    20    19   ar
    16     8     9    1
    17     8     1    1
    18    15    16    2
    19    18    19    1
    20     7     1   ar
    21     7     5   ar
    22     6     5    1
    23    21    22   ar
    24    12     9    1
    25    12    11   am
    26    19    24   ar
    27     1     2   ar
    28    10    11    1
    29     5     4   ar
    30    22    23   ar
    31    24    23   ar
    32    24    32    1
    33     2     3   ar
    34     4     3   ar
    35    32    33    1
