@<TRIPOS>MOLECULE
L3024_0_out.pdbqt
 33 35 0 0 0
SMALL
GASTEIGER

@<TRIPOS>ATOM
      1 C27         7.5670  -18.1370   -9.3900 C.ar    1  MOL1       -0.0240
      2 C28         7.5470  -17.3400  -10.5490 C.ar    1  MOL1       -0.0570
      3 C29         6.7380  -16.2010  -10.6110 C.ar    1  MOL1       -0.0610
      4 C30         5.9410  -15.8470   -9.5200 C.ar    1  MOL1       -0.0480
      5 C31         5.9530  -16.6280   -8.3590 C.ar    1  MOL1        0.0180
      6 Br32        4.8780  -16.1300   -6.8570 Br      1  MOL1       -0.0510
      7 C33         6.7570  -17.7710   -8.2950 C.ar    1  MOL1       -0.0430
      8  C6         8.3890  -19.4070   -9.3570 C.3     1  MOL1        0.0630
      9  C5         7.5890  -20.5360   -8.6830 C.3     1  MOL1        0.0510
     10  C1         4.2490  -22.0410  -10.0040 C.3     1  MOL1        0.0060
     11  N2         5.2690  -21.4880   -9.1260 N.am    1  MOL1       -0.3590
     12  C3         6.5620  -21.1140   -9.6130 C.2     1  MOL1        0.2220
     13  O4         6.8470  -21.2660  -10.8320 O.2     1  MOL1       -0.2750
     14  N7         9.6530  -19.1760   -8.6490 N.am    1  MOL1       -0.3460
     15  C8        10.8950  -18.9940   -9.3330 C.2     1  MOL1        0.2580
     16  O9        10.9410  -19.0400  -10.5910 O.2     1  MOL1       -0.2710
     17 C10        12.1540  -18.7350   -8.5610 C.3     1  MOL1        0.1670
     18 O11        13.2380  -19.4810   -9.1090 O.3     1  MOL1       -0.4800
     19 C12        14.2100  -20.0780   -8.3020 C.ar    1  MOL1        0.1660
     20 C13        15.4770  -19.4780   -8.1180 C.ar    1  MOL1        0.0120
     21 C21        16.3950  -20.0720   -7.2360 C.ar    1  MOL1       -0.0540
     22 C22        16.0820  -21.2650   -6.5850 C.ar    1  MOL1       -0.0580
     23 C23        14.8500  -21.8820   -6.8070 C.ar    1  MOL1       -0.0160
     24 C24        13.9070  -21.2950   -7.6710 C.ar    1  MOL1        0.1610
     25 C14        15.8730  -18.2130   -8.8480 C.3     1  MOL1        0.0280
     26 N15        16.7300  -17.3690   -7.9900 N.3     1  MOL1       -0.2870
     27 C16        15.9290  -16.5500   -7.0640 C.3     1  MOL1        0.0640
     28 C17        16.3510  -15.2550   -7.7290 C.3     1  MOL1        0.2720
     29 F18        17.1370  -14.4480   -6.9250 F       1  MOL1       -0.2040
     30 F19        15.3120  -14.5840   -8.3530 F       1  MOL1       -0.2040
     31 C20        17.1520  -16.1330   -8.6700 C.3     1  MOL1        0.0640
     32 O25        12.6590  -21.8840   -7.9210 O.3     1  MOL1       -0.4930
     33 C26        12.3370  -23.2410   -7.6390 C.3     1  MOL1        0.0780
@<TRIPOS>BOND
     1    13    12    2
     2     3     2   ar
     3     3     4   ar
     4    16    15    2
     5     2     1   ar
     6    10    11    1
     7    12    11   am
     8    12     9    1
     9     4     5   ar
    10     1     8    1
    11     1     7   ar
    12     8     9    1
    13     8    14    1
    14    15    14   am
    15    15    17    1
    16    18    17    1
    17    18    19    1
    18    25    20    1
    19    25    26    1
    20    31    26    1
    21    31    28    1
    22     5     7   ar
    23     5     6    1
    24    30    28    1
    25    19    20   ar
    26    19    24   ar
    27    20    21   ar
    28    26    27    1
    29    32    24    1
    30    32    33    1
    31    28    27    1
    32    28    29    1
    33    24    23   ar
    34    21    22   ar
    35    23    22   ar
