@<TRIPOS>MOLECULE
L3024_0_out.pdbqt
 33 35 0 0 0
SMALL
GASTEIGER

@<TRIPOS>ATOM
      1 C27        15.3060  -20.1940   -7.6830 C.ar    1  MOL1       -0.0240
      2 C28        15.2120  -21.1280   -6.6350 C.ar    1  MOL1       -0.0570
      3 C29        16.1490  -22.1610   -6.5230 C.ar    1  MOL1       -0.0610
      4 C30        17.1870  -22.2710   -7.4520 C.ar    1  MOL1       -0.0480
      5 C31        17.2940  -21.3450   -8.4960 C.ar    1  MOL1        0.0180
      6 Br32       18.7280  -21.4830   -9.7550 Br      1  MOL1       -0.0510
      7 C33        16.3560  -20.3150   -8.6160 C.ar    1  MOL1       -0.0430
      8  C6        14.2470  -19.1240   -7.8400 C.3     1  MOL1        0.0630
      9  C5        14.3870  -18.0750   -6.7220 C.3     1  MOL1        0.0510
     10  C1        16.7790  -15.0960   -7.4810 C.3     1  MOL1        0.0060
     11  N2        16.2440  -16.3510   -6.9720 N.am    1  MOL1       -0.3590
     12  C3        14.9050  -16.7700   -7.2530 C.2     1  MOL1        0.2220
     13  O4        14.1490  -16.0430   -7.9550 O.2     1  MOL1       -0.2750
     14  N7        12.9090  -19.7260   -7.8190 N.am    1  MOL1       -0.3460
     15  C8        11.8380  -19.2480   -8.6350 C.2     1  MOL1        0.2580
     16  O9        12.0150  -18.2670   -9.4050 O.2     1  MOL1       -0.2710
     17 C10        10.4970  -19.9170   -8.5930 C.3     1  MOL1        0.1670
     18 O11        10.1850  -20.4890   -9.8610 O.3     1  MOL1       -0.4800
     19 C12         8.9100  -20.9750  -10.1620 C.ar    1  MOL1        0.1660
     20 C13         7.9110  -20.1270  -10.6920 C.ar    1  MOL1        0.0120
     21 C21         6.6690  -20.6750  -11.0540 C.ar    1  MOL1       -0.0540
     22 C22         6.4050  -22.0290  -10.8490 C.ar    1  MOL1       -0.0580
     23 C23         7.3760  -22.8540  -10.2800 C.ar    1  MOL1       -0.0160
     24 C24         8.6340  -22.3320   -9.9280 C.ar    1  MOL1        0.1610
     25 C14         8.1410  -18.6440  -10.8780 C.3     1  MOL1        0.0280
     26 N15         7.2250  -17.8680  -10.0180 N.3     1  MOL1       -0.2870
     27 C16         7.7280  -16.5040   -9.7820 C.3     1  MOL1        0.0640
     28 C17         7.9380  -16.7570   -8.3030 C.3     1  MOL1        0.2720
     29 F18         7.0990  -16.0190   -7.4880 F       1  MOL1       -0.2040
     30 F19         9.2680  -16.7250   -7.9150 F       1  MOL1       -0.2040
     31 C20         7.4280  -18.1560   -8.5870 C.3     1  MOL1        0.0640
     32 O25         9.6360  -23.1270   -9.3530 O.3     1  MOL1       -0.4930
     33 C26         9.6350  -24.5510   -9.3540 C.3     1  MOL1        0.0780
@<TRIPOS>BOND
     1    21    22   ar
     2    21    20   ar
     3    25    20    1
     4    25    26    1
     5    22    23   ar
     6    20    19   ar
     7    23    24   ar
     8    19    24   ar
     9    19    18    1
    10    26    27    1
    11    26    31    1
    12    24    32    1
    13    18    17    1
    14    27    28    1
    15     6     5    1
    16    16    15    2
    17    33    32    1
    18    15    17    1
    19    15    14   am
    20     7     5   ar
    21     7     1   ar
    22    31    28    1
    23     5     4   ar
    24    28    30    1
    25    28    29    1
    26    13    12    2
    27     8    14    1
    28     8     1    1
    29     8     9    1
    30     1     2   ar
    31    10    11    1
    32     4     3   ar
    33    12    11   am
    34    12     9    1
    35     2     3   ar
