@<TRIPOS>MOLECULE
L3024_0_out.pdbqt
 33 35 0 0 0
SMALL
GASTEIGER

@<TRIPOS>ATOM
      1 C27        11.6100  -17.7960   -8.7490 C.ar    1  MOL1       -0.0240
      2 C28        11.7300  -18.5590   -9.9250 C.ar    1  MOL1       -0.0570
      3 C29        10.5960  -18.8800  -10.6790 C.ar    1  MOL1       -0.0610
      4 C30         9.3340  -18.4430  -10.2680 C.ar    1  MOL1       -0.0480
      5 C31         9.2010  -17.6810   -9.1020 C.ar    1  MOL1        0.0180
      6 Br32        7.4750  -17.0660   -8.5520 Br      1  MOL1       -0.0510
      7 C33        10.3310  -17.3630   -8.3430 C.ar    1  MOL1       -0.0430
      8  C6        12.8310  -17.5150   -7.9010 C.3     1  MOL1        0.0630
      9  C5        13.3770  -16.1090   -8.2110 C.3     1  MOL1        0.0510
     10  C1        13.0230  -14.8720   -4.5340 C.3     1  MOL1        0.0060
     11  N2        12.8450  -15.6250   -5.7680 N.am    1  MOL1       -0.3590
     12  C3        13.5750  -15.3070   -6.9580 C.2     1  MOL1        0.2220
     13  O4        14.3950  -14.3480   -6.9600 O.2     1  MOL1       -0.2750
     14  N7        13.8600  -18.5320   -8.1390 N.am    1  MOL1       -0.3460
     15  C8        14.6180  -19.1220   -7.0800 C.2     1  MOL1        0.2580
     16  O9        14.4240  -18.7680   -5.8870 O.2     1  MOL1       -0.2710
     17 C10        15.6400  -20.1780   -7.3770 C.3     1  MOL1        0.1670
     18 O11        16.9420  -19.6020   -7.4610 O.3     1  MOL1       -0.4800
     19 C12        17.3880  -18.9430   -8.6100 C.ar    1  MOL1        0.1660
     20 C13        17.4060  -17.5310   -8.6820 C.ar    1  MOL1        0.0120
     21 C21        17.9360  -16.9100   -9.8250 C.ar    1  MOL1       -0.0540
     22 C22        18.3960  -17.6750  -10.8970 C.ar    1  MOL1       -0.0580
     23 C23        18.3310  -19.0670  -10.8440 C.ar    1  MOL1       -0.0160
     24 C24        17.8230  -19.7120   -9.7020 C.ar    1  MOL1        0.1610
     25 C14        16.8670  -16.6690   -7.5620 C.3     1  MOL1        0.0280
     26 N15        17.8900  -16.4880   -6.5130 N.3     1  MOL1       -0.2870
     27 C16        17.3820  -16.8780   -5.1870 C.3     1  MOL1        0.0640
     28 C17        17.4540  -15.4580   -4.6600 C.3     1  MOL1        0.2720
     29 F18        18.3960  -15.2820   -3.6620 F       1  MOL1       -0.2040
     30 F19        16.2170  -14.9090   -4.3670 F       1  MOL1       -0.2040
     31 C20        17.9620  -15.0940   -6.0420 C.3     1  MOL1        0.0640
     32 O25        17.7400  -21.1090   -9.6090 O.3     1  MOL1       -0.4930
     33 C26        18.4310  -22.0160  -10.4620 C.3     1  MOL1        0.0780
@<TRIPOS>BOND
     1    22    23   ar
     2    22    21   ar
     3    23    24   ar
     4     3     4   ar
     5     3     2   ar
     6    33    32    1
     7     4     5   ar
     8     2     1   ar
     9    21    20   ar
    10    24    32    1
    11    24    19   ar
    12     5     6    1
    13     5     7   ar
    14     1     7   ar
    15     1     8    1
    16    20    19   ar
    17    20    25    1
    18    19    18    1
    19     9     8    1
    20     9    12    1
    21    14     8    1
    22    14    15   am
    23    25    26    1
    24    18    17    1
    25    17    15    1
    26    15    16    2
    27    13    12    2
    28    12    11   am
    29    26    31    1
    30    26    27    1
    31    31    28    1
    32    11    10    1
    33    27    28    1
    34    28    30    1
    35    28    29    1
