@<TRIPOS>MOLECULE
L3024_0_out.pdbqt
 33 35 0 0 0
SMALL
GASTEIGER

@<TRIPOS>ATOM
      1 C27         6.6780  -21.3650   -8.9810 C.ar    1  MOL1       -0.0240
      2 C28         6.4490  -20.4060   -7.9770 C.ar    1  MOL1       -0.0570
      3 C29         5.1430  -20.0420   -7.6320 C.ar    1  MOL1       -0.0610
      4 C30         4.0550  -20.6280   -8.2850 C.ar    1  MOL1       -0.0480
      5 C31         4.2690  -21.5850   -9.2830 C.ar    1  MOL1        0.0180
      6 Br32        2.7790  -22.4040  -10.1600 Br      1  MOL1       -0.0510
      7 C33         5.5730  -21.9490   -9.6340 C.ar    1  MOL1       -0.0430
      8  C6         8.0930  -21.7010   -9.3990 C.3     1  MOL1        0.0630
      9  C5         8.3150  -23.2230   -9.3350 C.3     1  MOL1        0.0510
     10  C1        11.2070  -24.5980  -11.5520 C.3     1  MOL1        0.0060
     11  N2         9.8840  -24.2310  -11.0700 N.am    1  MOL1       -0.3590
     12  C3         9.6930  -23.5980   -9.8000 C.2     1  MOL1        0.2220
     13  O4        10.6850  -23.3480   -9.0620 O.2     1  MOL1       -0.2750
     14  N7         9.0560  -21.0020   -8.5400 N.am    1  MOL1       -0.3460
     15  C8        10.0340  -20.0970   -9.0580 C.2     1  MOL1        0.2580
     16  O9        10.1030  -19.8780  -10.2960 O.2     1  MOL1       -0.2710
     17 C10        10.9770  -19.3900   -8.1320 C.3     1  MOL1        0.1670
     18 O11        12.2860  -19.9440   -8.2340 O.3     1  MOL1       -0.4800
     19 C12        13.1780  -19.9420   -7.1590 C.ar    1  MOL1        0.1660
     20 C13        14.0700  -18.8640   -6.9500 C.ar    1  MOL1        0.0120
     21 C21        14.8930  -18.8670   -5.8110 C.ar    1  MOL1       -0.0540
     22 C22        14.8690  -19.9420   -4.9230 C.ar    1  MOL1       -0.0580
     23 C23        14.0250  -21.0280   -5.1580 C.ar    1  MOL1       -0.0160
     24 C24        13.1760  -21.0380   -6.2800 C.ar    1  MOL1        0.1610
     25 C14        14.1620  -17.7070   -7.9200 C.3     1  MOL1        0.0280
     26 N15        14.6880  -16.5060   -7.2400 N.3     1  MOL1       -0.2870
     27 C16        14.7460  -15.3500   -8.1520 C.3     1  MOL1        0.0640
     28 C17        16.2610  -15.3010   -8.1100 C.3     1  MOL1        0.2720
     29 F18        16.7630  -14.1680   -7.4930 F       1  MOL1       -0.2040
     30 F19        16.8620  -15.5930   -9.3230 F       1  MOL1       -0.2040
     31 C20        16.1600  -16.4980   -7.1840 C.3     1  MOL1        0.0640
     32 O25        12.3140  -22.1100   -6.5530 O.3     1  MOL1       -0.4930
     33 C26        12.6460  -23.4810   -6.3580 C.3     1  MOL1        0.0780
@<TRIPOS>BOND
     1    10    11    1
     2    11    12   am
     3    16    15    2
     4     6     5    1
     5    12     9    1
     6    12    13    2
     7     7     5   ar
     8     7     1   ar
     9     8     9    1
    10     8     1    1
    11     8    14    1
    12    30    28    1
    13     5     4   ar
    14    15    14   am
    15    15    17    1
    16     1     2   ar
    17     4     3   ar
    18    18    17    1
    19    18    19    1
    20    27    28    1
    21    27    26    1
    22    28    29    1
    23    28    31    1
    24     2     3   ar
    25    25    26    1
    26    25    20    1
    27    26    31    1
    28    19    20   ar
    29    19    24   ar
    30    20    21   ar
    31    32    33    1
    32    32    24    1
    33    24    23   ar
    34    21    22   ar
    35    23    22   ar
