@<TRIPOS>MOLECULE
L3024_0_out.pdbqt
 33 35 0 0 0
SMALL
GASTEIGER

@<TRIPOS>ATOM
      1 C27         9.8860  -18.7620   -9.4470 C.ar    1  MOL1       -0.0240
      2 C28         9.6780  -18.7910  -10.8380 C.ar    1  MOL1       -0.0570
      3 C29         8.5200  -18.2360  -11.3920 C.ar    1  MOL1       -0.0610
      4 C30         7.5590  -17.6470  -10.5650 C.ar    1  MOL1       -0.0480
      5 C31         7.7550  -17.6090   -9.1800 C.ar    1  MOL1        0.0180
      6 Br32        6.4500  -16.7840   -8.0510 Br      1  MOL1       -0.0510
      7 C33         8.9090  -18.1680   -8.6220 C.ar    1  MOL1       -0.0430
      8  C6        11.1060  -19.4290   -8.8490 C.3     1  MOL1        0.0630
      9  C5        10.6790  -20.6130   -7.9630 C.3     1  MOL1        0.0510
     10  C1        12.0680  -24.1570   -8.7880 C.3     1  MOL1        0.0060
     11  N2        11.1730  -23.0200   -8.6350 N.am    1  MOL1       -0.3590
     12  C3        11.6240  -21.7710   -8.0980 C.2     1  MOL1        0.2220
     13  O4        12.8250  -21.6360   -7.7370 O.2     1  MOL1       -0.2750
     14  N7        11.8870  -18.4590   -8.0740 N.am    1  MOL1       -0.3460
     15  C8        13.2640  -18.1880   -8.3450 C.2     1  MOL1        0.2580
     16  O9        13.8610  -18.7970   -9.2720 O.2     1  MOL1       -0.2710
     17 C10        14.0080  -17.1670   -7.5380 C.3     1  MOL1        0.1670
     18 O11        14.5760  -17.7670   -6.3760 O.3     1  MOL1       -0.4800
     19 C12        15.9560  -17.8050   -6.1610 C.ar    1  MOL1        0.1660
     20 C13        16.6400  -16.7030   -5.5990 C.ar    1  MOL1        0.0120
     21 C21        18.0140  -16.8140   -5.3270 C.ar    1  MOL1       -0.0540
     22 C22        18.7070  -17.9800   -5.6500 C.ar    1  MOL1       -0.0580
     23 C23        18.0410  -19.0490   -6.2510 C.ar    1  MOL1       -0.0160
     24 C24        16.6610  -18.9680   -6.5150 C.ar    1  MOL1        0.1610
     25 C14        15.9320  -15.4030   -5.2840 C.3     1  MOL1        0.0280
     26 N15        15.8990  -15.1750   -3.8250 N.3     1  MOL1       -0.2870
     27 C16        14.9900  -16.1180   -3.1500 C.3     1  MOL1        0.0640
     28 C17        14.0340  -15.0160   -2.7390 C.3     1  MOL1        0.2720
     29 F18        13.9800  -14.8080   -1.3720 F       1  MOL1       -0.2040
     30 F19        12.7900  -15.1030   -3.3430 F       1  MOL1       -0.2040
     31 C20        14.9870  -14.0790   -3.4550 C.3     1  MOL1        0.0640
     32 O25        15.9540  -20.0190   -7.1170 O.3     1  MOL1       -0.4930
     33 C26        16.5190  -20.9440   -8.0410 C.3     1  MOL1        0.0780
@<TRIPOS>BOND
     1     3     2   ar
     2     3     4   ar
     3     2     1   ar
     4     4     5   ar
     5     1     8    1
     6     1     7   ar
     7    16    15    2
     8     5     7   ar
     9     5     6    1
    10     8    14    1
    11     8     9    1
    12    10    11    1
    13    11    12   am
    14    15    14   am
    15    15    17    1
    16    12     9    1
    17    12    13    2
    18    33    32    1
    19    17    18    1
    20    32    24    1
    21    24    23   ar
    22    24    19   ar
    23    18    19    1
    24    23    22   ar
    25    19    20   ar
    26    22    21   ar
    27    20    21   ar
    28    20    25    1
    29    25    26    1
    30    26    31    1
    31    26    27    1
    32    31    28    1
    33    30    28    1
    34    27    28    1
    35    28    29    1
