@<TRIPOS>MOLECULE
L3024_0_out.pdbqt
 33 35 0 0 0
SMALL
GASTEIGER

@<TRIPOS>ATOM
      1 C27         7.1890  -20.1930   -8.6450 C.ar    1  MOL1       -0.0240
      2 C28         6.9020  -18.8180   -8.5620 C.ar    1  MOL1       -0.0570
      3 C29         5.6900  -18.3800   -8.0170 C.ar    1  MOL1       -0.0610
      4 C30         4.7540  -19.3080   -7.5510 C.ar    1  MOL1       -0.0480
      5 C31         5.0290  -20.6780   -7.6240 C.ar    1  MOL1        0.0180
      6 Br32        3.7580  -21.9470   -6.9650 Br      1  MOL1       -0.0510
      7 C33         6.2370  -21.1200   -8.1730 C.ar    1  MOL1       -0.0430
      8  C6         8.4700  -20.6610   -9.3020 C.3     1  MOL1        0.0630
      9  C5         8.5900  -22.1910   -9.1910 C.3     1  MOL1        0.0510
     10  C1        10.7480  -24.6250  -11.3350 C.3     1  MOL1        0.0060
     11  N2        10.0100  -24.0350  -10.2280 N.am    1  MOL1       -0.3590
     12  C3         9.3530  -22.7680  -10.3490 C.2     1  MOL1        0.2220
     13  O4         9.4080  -22.1280  -11.4340 O.2     1  MOL1       -0.2750
     14  N7         9.6270  -20.0060   -8.6830 N.am    1  MOL1       -0.3460
     15  C8        10.5370  -19.1910   -9.4240 C.2     1  MOL1        0.2580
     16  O9        10.3710  -19.0170  -10.6610 O.2     1  MOL1       -0.2710
     17 C10        11.6890  -18.5220   -8.7370 C.3     1  MOL1        0.1670
     18 O11        12.8150  -19.3950   -8.6880 O.3     1  MOL1       -0.4800
     19 C12        13.3940  -19.7920   -7.4790 C.ar    1  MOL1        0.1660
     20 C13        14.2810  -18.9420   -6.7800 C.ar    1  MOL1        0.0120
     21 C21        14.7770  -19.3490   -5.5300 C.ar    1  MOL1       -0.0540
     22 C22        14.4400  -20.5970   -5.0060 C.ar    1  MOL1       -0.0580
     23 C23        13.6050  -21.4550   -5.7220 C.ar    1  MOL1       -0.0160
     24 C24        13.0790  -21.0610   -6.9660 C.ar    1  MOL1        0.1610
     25 C14        14.7120  -17.6050   -7.3410 C.3     1  MOL1        0.0280
     26 N15        15.7970  -17.0280   -6.5220 N.3     1  MOL1       -0.2870
     27 C16        15.6270  -15.5760   -6.3410 C.3     1  MOL1        0.0640
     28 C17        16.8740  -15.2560   -7.1410 C.3     1  MOL1        0.2720
     29 F18        17.8890  -14.6950   -6.3860 F       1  MOL1       -0.2040
     30 F19        16.6200  -14.5850   -8.3260 F       1  MOL1       -0.2040
     31 C20        17.0080  -16.7560   -7.3150 C.3     1  MOL1        0.0640
     32 O25        12.2370  -21.8940   -7.7170 O.3     1  MOL1       -0.4930
     33 C26        12.4440  -23.2900   -7.9050 C.3     1  MOL1        0.0780
@<TRIPOS>BOND
     1    13    12    2
     2    10    11    1
     3    16    15    2
     4    12    11   am
     5    12     9    1
     6    15    17    1
     7    15    14   am
     8     8     9    1
     9     8    14    1
    10     8     1    1
    11    17    18    1
    12    18    19    1
    13     1     2   ar
    14     1     7   ar
    15     2     3   ar
    16    30    28    1
    17     7     5   ar
    18     3     4   ar
    19    33    32    1
    20    32    24    1
    21     5     4   ar
    22     5     6    1
    23    19    24   ar
    24    19    20   ar
    25    25    20    1
    26    25    26    1
    27    31    28    1
    28    31    26    1
    29    28    29    1
    30    28    27    1
    31    24    23   ar
    32    20    21   ar
    33    26    27    1
    34    23    22   ar
    35    21    22   ar
