@<TRIPOS>MOLECULE
L3024_0_out.pdbqt
 33 35 0 0 0
SMALL
GASTEIGER

@<TRIPOS>ATOM
      1 C27         7.6500  -18.1600   -9.3480 C.ar    1  MOL1       -0.0240
      2 C28         7.6480  -17.4030  -10.5340 C.ar    1  MOL1       -0.0570
      3 C29         6.8150  -16.2850  -10.6580 C.ar    1  MOL1       -0.0610
      4 C30         5.9790  -15.9130   -9.6020 C.ar    1  MOL1       -0.0480
      5 C31         5.9740  -16.6550   -8.4160 C.ar    1  MOL1        0.0180
      6 Br32        4.8450  -16.1320   -6.9630 Br      1  MOL1       -0.0510
      7 C33         6.8010  -17.7770   -8.2900 C.ar    1  MOL1       -0.0430
      8  C6         8.4990  -19.4090   -9.2490 C.3     1  MOL1        0.0630
      9  C5         7.8230  -20.4340   -8.3210 C.3     1  MOL1        0.0510
     10  C1         4.7740  -21.9900  -10.1790 C.3     1  MOL1        0.0060
     11  N2         5.6190  -21.0780   -9.4220 N.am    1  MOL1       -0.3590
     12  C3         6.9740  -21.4010   -9.0940 C.2     1  MOL1        0.2220
     13  O4         7.4670  -22.5040   -9.4560 O.2     1  MOL1       -0.2750
     14  N7         9.8410  -19.0740   -8.7590 N.am    1  MOL1       -0.3460
     15  C8        10.9530  -18.8780   -9.6340 C.2     1  MOL1        0.2580
     16  O9        10.8100  -19.0000  -10.8800 O.2     1  MOL1       -0.2710
     17 C10        12.2970  -18.5110   -9.0820 C.3     1  MOL1        0.1670
     18 O11        12.2980  -18.6140   -7.6600 O.3     1  MOL1       -0.4800
     19 C12        13.2690  -19.3440   -6.9700 C.ar    1  MOL1        0.1660
     20 C13        14.5040  -18.7580   -6.6090 C.ar    1  MOL1        0.0120
     21 C21        15.4190  -19.5040   -5.8460 C.ar    1  MOL1       -0.0540
     22 C22        15.1350  -20.8220   -5.4900 C.ar    1  MOL1       -0.0580
     23 C23        13.9370  -21.4140   -5.8900 C.ar    1  MOL1       -0.0160
     24 C24        12.9970  -20.6810   -6.6370 C.ar    1  MOL1        0.1610
     25 C14        14.8690  -17.3500   -7.0220 C.3     1  MOL1        0.0280
     26 N15        16.0300  -16.8690   -6.2450 N.3     1  MOL1       -0.2870
     27 C16        15.8890  -15.4480   -5.8860 C.3     1  MOL1        0.0640
     28 C17        17.0620  -15.0360   -6.7540 C.3     1  MOL1        0.2720
     29 F18        18.1470  -14.5640   -6.0360 F       1  MOL1       -0.2040
     30 F19        16.7070  -14.2340   -7.8270 F       1  MOL1       -0.2040
     31 C20        17.1660  -16.5060   -7.1100 C.3     1  MOL1        0.0640
     32 O25        11.7820  -21.2390   -7.0600 O.3     1  MOL1       -0.4930
     33 C26        11.6560  -22.1970   -8.1060 C.3     1  MOL1        0.0780
@<TRIPOS>BOND
     1    16    15    2
     2     3     2   ar
     3     3     4   ar
     4     2     1   ar
     5    10    11    1
     6    15    17    1
     7    15    14   am
     8     4     5   ar
     9    13    12    2
    10    11    12   am
    11     1     8    1
    12     1     7   ar
    13     8    14    1
    14     8     9    1
    15    12     9    1
    16    17    18    1
    17     5     7   ar
    18     5     6    1
    19    33    32    1
    20    30    28    1
    21    18    19    1
    22    31    28    1
    23    31    26    1
    24    32    24    1
    25    25    20    1
    26    25    26    1
    27    19    24   ar
    28    19    20   ar
    29    28    29    1
    30    28    27    1
    31    24    23   ar
    32    20    21   ar
    33    26    27    1
    34    23    22   ar
    35    21    22   ar
