@<TRIPOS>MOLECULE
L3024_0_out.pdbqt
 33 35 0 0 0
SMALL
GASTEIGER

@<TRIPOS>ATOM
      1 C27        16.1170  -18.0560   -6.5850 C.ar    1  MOL1       -0.0240
      2 C28        17.0830  -17.3670   -7.3410 C.ar    1  MOL1       -0.0570
      3 C29        16.8200  -16.0780   -7.8190 C.ar    1  MOL1       -0.0610
      4 C30        15.5930  -15.4660   -7.5470 C.ar    1  MOL1       -0.0480
      5 C31        14.6250  -16.1400   -6.7930 C.ar    1  MOL1        0.0180
      6 Br32       12.9550  -15.2930   -6.4040 Br      1  MOL1       -0.0510
      7 C33        14.8820  -17.4300   -6.3190 C.ar    1  MOL1       -0.0430
      8  C6        16.3810  -19.4770   -6.1350 C.3     1  MOL1        0.0630
      9  C5        16.1730  -20.4500   -7.3100 C.3     1  MOL1        0.0510
     10  C1        19.7220  -21.5880   -8.4410 C.3     1  MOL1        0.0060
     11  N2        18.5290  -20.7840   -8.2160 N.am    1  MOL1       -0.3590
     12  C3        17.3840  -21.3080   -7.5350 C.2     1  MOL1        0.2220
     13  O4        17.3860  -22.4970   -7.1160 O.2     1  MOL1       -0.2750
     14  N7        15.5020  -19.8260   -5.0130 N.am    1  MOL1       -0.3460
     15  C8        15.9090  -19.6990   -3.6490 C.2     1  MOL1        0.2580
     16  O9        17.0640  -19.2840   -3.3670 O.2     1  MOL1       -0.2710
     17 C10        14.9610  -20.0450   -2.5400 C.3     1  MOL1        0.1670
     18 O11        15.5340  -19.7210   -1.2750 O.3     1  MOL1       -0.4800
     19 C12        14.8080  -19.0630   -0.2790 C.ar    1  MOL1        0.1660
     20 C13        14.6500  -17.6580   -0.2970 C.ar    1  MOL1        0.0120
     21 C21        13.8460  -17.0470    0.6790 C.ar    1  MOL1       -0.0540
     22 C22        13.2500  -17.8090    1.6840 C.ar    1  MOL1       -0.0580
     23 C23        13.4480  -19.1890    1.7290 C.ar    1  MOL1       -0.0160
     24 C24        14.2330  -19.8260    0.7500 C.ar    1  MOL1        0.1610
     25 C14        15.3240  -16.7940   -1.3390 C.3     1  MOL1        0.0280
     26 N15        14.5560  -15.5510   -1.5540 N.3     1  MOL1       -0.2870
     27 C16        14.0410  -15.4620   -2.9310 C.3     1  MOL1        0.0640
     28 C17        14.9160  -14.2680   -3.2590 C.3     1  MOL1        0.2720
     29 F18        14.2030  -13.1030   -3.4820 F       1  MOL1       -0.2040
     30 F19        15.8790  -14.5290   -4.2190 F       1  MOL1       -0.2040
     31 C20        15.4300  -14.4000   -1.8390 C.3     1  MOL1        0.0640
     32 O25        14.4580  -21.2100    0.7600 O.3     1  MOL1       -0.4930
     33 C26        13.4440  -22.1930    0.5780 C.3     1  MOL1        0.0780
@<TRIPOS>BOND
     1    10    11    1
     2    11    12   am
     3     3     4   ar
     4     3     2   ar
     5     4     5   ar
     6    12     9    1
     7    12    13    2
     8     2     1   ar
     9     9     8    1
    10     5     6    1
    11     5     7   ar
    12     1     7   ar
    13     1     8    1
    14     8    14    1
    15    14    15   am
    16    30    28    1
    17    15    16    2
    18    15    17    1
    19    29    28    1
    20    28    27    1
    21    28    31    1
    22    27    26    1
    23    17    18    1
    24    31    26    1
    25    26    25    1
    26    25    20    1
    27    18    19    1
    28    20    19   ar
    29    20    21   ar
    30    19    24   ar
    31    33    32    1
    32    21    22   ar
    33    24    32    1
    34    24    23   ar
    35    22    23   ar
