@<TRIPOS>MOLECULE
L3024_0_out.pdbqt
 33 35 0 0 0
SMALL
GASTEIGER

@<TRIPOS>ATOM
      1 C27         7.6670  -17.6320   -9.9660 C.ar    1  MOL1       -0.0240
      2 C28         7.2030  -17.6930   -8.6390 C.ar    1  MOL1       -0.0570
      3 C29         6.1950  -16.8270   -8.2020 C.ar    1  MOL1       -0.0610
      4 C30         5.6410  -15.8940   -9.0830 C.ar    1  MOL1       -0.0480
      5 C31         6.0910  -15.8260  -10.4060 C.ar    1  MOL1        0.0180
      6 Br32        5.3170  -14.5630  -11.6170 Br      1  MOL1       -0.0510
      7 C33         7.1020  -16.6860  -10.8450 C.ar    1  MOL1       -0.0430
      8  C6         8.8070  -18.5220  -10.4110 C.3     1  MOL1        0.0630
      9  C5         8.2540  -19.8070  -11.0540 C.3     1  MOL1        0.0510
     10  C1         9.7010  -23.0870   -9.5300 C.3     1  MOL1        0.0060
     11  N2         9.4930  -21.9310  -10.3900 N.am    1  MOL1       -0.3590
     12  C3         8.4360  -20.9950  -10.1540 C.2     1  MOL1        0.2220
     13  O4         7.6490  -21.1620   -9.1820 O.2     1  MOL1       -0.2750
     14  N7         9.6730  -18.8460   -9.2720 N.am    1  MOL1       -0.3460
     15  C8        11.0980  -18.7620   -9.3410 C.2     1  MOL1        0.2580
     16  O9        11.6630  -18.4090  -10.4100 O.2     1  MOL1       -0.2710
     17 C10        11.9350  -19.0800   -8.1380 C.3     1  MOL1        0.1670
     18 O11        13.2620  -19.4250   -8.5310 O.3     1  MOL1       -0.4800
     19 C12        14.2140  -19.8720   -7.6110 C.ar    1  MOL1        0.1660
     20 C13        15.1510  -18.9810   -7.0390 C.ar    1  MOL1        0.0120
     21 C21        16.0390  -19.4560   -6.0600 C.ar    1  MOL1       -0.0540
     22 C22        16.0310  -20.8010   -5.6900 C.ar    1  MOL1       -0.0580
     23 C23        15.1400  -21.6890   -6.2920 C.ar    1  MOL1       -0.0160
     24 C24        14.2270  -21.2320   -7.2610 C.ar    1  MOL1        0.1610
     25 C14        15.2250  -17.5280   -7.4530 C.3     1  MOL1        0.0280
     26 N15        14.5770  -16.6690   -6.4410 N.3     1  MOL1       -0.2870
     27 C16        13.4700  -15.8890   -7.0200 C.3     1  MOL1        0.0640
     28 C17        14.1890  -14.5720   -6.8050 C.3     1  MOL1        0.2720
     29 F18        13.5770  -13.7510   -5.8730 F       1  MOL1       -0.2040
     30 F19        14.5330  -13.9260   -7.9820 F       1  MOL1       -0.2040
     31 C20        15.3120  -15.4100   -6.2280 C.3     1  MOL1        0.0640
     32 O25        13.3160  -22.0910   -7.8910 O.3     1  MOL1       -0.4930
     33 C26        13.2560  -23.4980   -7.6780 C.3     1  MOL1        0.0780
@<TRIPOS>BOND
     1     6     5    1
     2     9     8    1
     3     9    12    1
     4     7     5   ar
     5     7     1   ar
     6     8     1    1
     7     8    14    1
     8    16    15    2
     9     5     4   ar
    10    11    12   am
    11    11    10    1
    12    12    13    2
    13     1     2   ar
    14    15    14   am
    15    15    17    1
    16     4     3   ar
    17     2     3   ar
    18    18    17    1
    19    18    19    1
    20    30    28    1
    21    32    33    1
    22    32    24    1
    23    19    24   ar
    24    19    20   ar
    25    25    20    1
    26    25    26    1
    27    24    23   ar
    28    20    21   ar
    29    27    28    1
    30    27    26    1
    31    28    31    1
    32    28    29    1
    33    26    31    1
    34    23    22   ar
    35    21    22   ar
