@<TRIPOS>MOLECULE
L3024_0_out.pdbqt
 33 35 0 0 0
SMALL
GASTEIGER

@<TRIPOS>ATOM
      1 C27        13.9680  -19.8030   -8.2560 C.ar    1  MOL1       -0.0240
      2 C28        15.1970  -20.0830   -8.8800 C.ar    1  MOL1       -0.0570
      3 C29        15.7580  -21.3610   -8.7970 C.ar    1  MOL1       -0.0610
      4 C30        15.1000  -22.3720   -8.0910 C.ar    1  MOL1       -0.0480
      5 C31        13.8750  -22.1080   -7.4680 C.ar    1  MOL1        0.0180
      6 Br32       12.9640  -23.4980   -6.5210 Br      1  MOL1       -0.0510
      7 C33        13.3130  -20.8300   -7.5440 C.ar    1  MOL1       -0.0430
      8  C6        13.4040  -18.3990   -8.2880 C.3     1  MOL1        0.0630
      9  C5        13.7030  -17.6800   -6.9610 C.3     1  MOL1        0.0510
     10  C1        16.6500  -15.2820   -7.8200 C.3     1  MOL1        0.0060
     11  N2        15.3410  -15.9170   -7.7970 N.am    1  MOL1       -0.3590
     12  C3        15.0670  -17.0530   -6.9700 C.2     1  MOL1        0.2220
     13  O4        15.9740  -17.5350   -6.2370 O.2     1  MOL1       -0.2750
     14  N7        11.9590  -18.4380   -8.5410 N.am    1  MOL1       -0.3460
     15  C8        11.4100  -18.4970   -9.8590 C.2     1  MOL1        0.2580
     16  O9        12.1700  -18.5070  -10.8640 O.2     1  MOL1       -0.2710
     17 C10         9.9260  -18.5610  -10.0600 C.3     1  MOL1        0.1670
     18 O11         9.3150  -19.3310   -9.0270 O.3     1  MOL1       -0.4800
     19 C12         8.2800  -20.2320   -9.2870 C.ar    1  MOL1        0.1660
     20 C13         6.9550  -19.7840   -9.4930 C.ar    1  MOL1        0.0120
     21 C21         5.9600  -20.7170   -9.8310 C.ar    1  MOL1       -0.0540
     22 C22         6.2630  -22.0760   -9.9140 C.ar    1  MOL1       -0.0580
     23 C23         7.5610  -22.5220   -9.6610 C.ar    1  MOL1       -0.0160
     24 C24         8.5780  -21.6030   -9.3410 C.ar    1  MOL1        0.1610
     25 C14         6.5770  -18.3250   -9.3590 C.3     1  MOL1        0.0280
     26 N15         6.3930  -17.9690   -7.9370 N.3     1  MOL1       -0.2870
     27 C16         4.9690  -17.8150   -7.5970 C.3     1  MOL1        0.0640
     28 C17         5.1170  -16.3310   -7.3280 C.3     1  MOL1        0.2720
     29 F18         4.9260  -15.9850   -6.0020 F       1  MOL1       -0.2040
     30 F19         4.4250  -15.5300   -8.2230 F       1  MOL1       -0.2040
     31 C20         6.5740  -16.5270   -7.6980 C.3     1  MOL1        0.0640
     32 O25         9.8940  -22.0110   -9.0790 O.3     1  MOL1       -0.4930
     33 C26        10.4040  -23.3120   -9.3500 C.3     1  MOL1        0.0780
@<TRIPOS>BOND
     1    16    15    2
     2    17    15    1
     3    17    18    1
     4    22    21   ar
     5    22    23   ar
     6    15    14   am
     7    21    20   ar
     8    23    24   ar
     9    20    25    1
    10    20    19   ar
    11    25    26    1
    12    33    32    1
    13    24    19   ar
    14    24    32    1
    15    19    18    1
    16     2     3   ar
    17     2     1   ar
    18     3     4   ar
    19    14     8    1
    20     8     1    1
    21     8     9    1
    22     1     7   ar
    23    30    28    1
    24     4     5   ar
    25    26    31    1
    26    26    27    1
    27    10    11    1
    28    11    12   am
    29    31    28    1
    30    27    28    1
    31     7     5   ar
    32     5     6    1
    33    28    29    1
    34    12     9    1
    35    12    13    2
