@<TRIPOS>MOLECULE
L3024_0_out.pdbqt
 33 35 0 0 0
SMALL
GASTEIGER

@<TRIPOS>ATOM
      1 C27        12.4210  -19.9830   -7.4120 C.ar    1  MOL1       -0.0240
      2 C28        13.1800  -20.0540   -6.2300 C.ar    1  MOL1       -0.0570
      3 C29        13.5180  -21.2950   -5.6800 C.ar    1  MOL1       -0.0610
      4 C30        13.1030  -22.4750   -6.3030 C.ar    1  MOL1       -0.0480
      5 C31        12.3500  -22.4180   -7.4810 C.ar    1  MOL1        0.0180
      6 Br32       11.8010  -24.0340   -8.3460 Br      1  MOL1       -0.0510
      7 C33        12.0060  -21.1790   -8.0310 C.ar    1  MOL1       -0.0430
      8  C6        11.9980  -18.6370   -7.9610 C.3     1  MOL1        0.0630
      9  C5        12.2180  -18.5960   -9.4840 C.3     1  MOL1        0.0510
     10  C1         8.4640  -17.8980  -10.2500 C.3     1  MOL1        0.0060
     11  N2         9.7370  -18.0280   -9.5560 N.am    1  MOL1       -0.3590
     12  C3        10.9180  -18.4830  -10.2250 C.2     1  MOL1        0.2220
     13  O4        10.8740  -18.7890  -11.4480 O.2     1  MOL1       -0.2750
     14  N7        12.7470  -17.5620   -7.3010 N.am    1  MOL1       -0.3460
     15  C8        12.1090  -16.4070   -6.7500 C.2     1  MOL1        0.2580
     16  O9        10.8590  -16.2750   -6.8270 O.2     1  MOL1       -0.2710
     17 C10        12.9200  -15.3490   -6.0630 C.3     1  MOL1        0.1670
     18 O11        14.3110  -15.6440   -6.1620 O.3     1  MOL1       -0.4800
     19 C12        15.0200  -16.2320   -5.1110 C.ar    1  MOL1        0.1660
     20 C13        15.9130  -17.3040   -5.3410 C.ar    1  MOL1        0.0120
     21 C21        16.6640  -17.8120   -4.2680 C.ar    1  MOL1       -0.0540
     22 C22        16.4980  -17.2990   -2.9810 C.ar    1  MOL1       -0.0580
     23 C23        15.5800  -16.2750   -2.7480 C.ar    1  MOL1       -0.0160
     24 C24        14.8310  -15.7370   -3.8100 C.ar    1  MOL1        0.1610
     25 C14        16.0800  -17.9210   -6.7120 C.3     1  MOL1        0.0280
     26 N15        17.1670  -17.2480   -7.4510 N.3     1  MOL1       -0.2870
     27 C16        16.6470  -16.4700   -8.5880 C.3     1  MOL1        0.0640
     28 C17        17.3230  -17.3670   -9.6060 C.3     1  MOL1        0.2720
     29 F18        18.3290  -16.7380  -10.3190 F       1  MOL1       -0.2040
     30 F19        16.4370  -18.0810  -10.3960 F       1  MOL1       -0.2040
     31 C20        17.8280  -18.1500   -8.4100 C.3     1  MOL1        0.0640
     32 O25        13.8970  -14.7080   -3.6180 O.3     1  MOL1       -0.4930
     33 C26        13.9690  -13.7400   -2.5760 C.3     1  MOL1        0.0780
@<TRIPOS>BOND
     1    13    12    2
     2    30    28    1
     3    29    28    1
     4    10    11    1
     5    12    11   am
     6    12     9    1
     7    28    27    1
     8    28    31    1
     9     9     8    1
    10    27    26    1
    11    31    26    1
    12     6     5    1
    13     7     5   ar
    14     7     1   ar
    15     8     1    1
    16     8    14    1
    17     5     4   ar
    18    26    25    1
    19     1     2   ar
    20    14    15   am
    21    16    15    2
    22    15    17    1
    23    25    20    1
    24     4     3   ar
    25     2     3   ar
    26    18    17    1
    27    18    19    1
    28    20    19   ar
    29    20    21   ar
    30    19    24   ar
    31    21    22   ar
    32    24    32    1
    33    24    23   ar
    34    32    33    1
    35    22    23   ar
