@<TRIPOS>MOLECULE
L3024_0_out.pdbqt
 33 35 0 0 0
SMALL
GASTEIGER

@<TRIPOS>ATOM
      1 C27        17.6530  -18.6820   -5.3280 C.ar    1  MOL1       -0.0240
      2 C28        18.7080  -17.8060   -5.6430 C.ar    1  MOL1       -0.0570
      3 C29        18.8920  -16.6280   -4.9120 C.ar    1  MOL1       -0.0610
      4 C30        18.0260  -16.3120   -3.8620 C.ar    1  MOL1       -0.0480
      5 C31        16.9740  -17.1760   -3.5360 C.ar    1  MOL1        0.0180
      6 Br32       15.8030  -16.7540   -2.0840 Br      1  MOL1       -0.0510
      7 C33        16.7840  -18.3530   -4.2680 C.ar    1  MOL1       -0.0430
      8  C6        17.4180  -19.9180   -6.1700 C.3     1  MOL1        0.0630
      9  C5        18.7600  -20.4690   -6.6840 C.3     1  MOL1        0.0510
     10  C1        18.0120  -23.3330   -9.2170 C.3     1  MOL1        0.0060
     11  N2        18.1940  -22.5880   -7.9790 N.am    1  MOL1       -0.3590
     12  C3        18.5900  -21.2130   -7.9770 C.2     1  MOL1        0.2220
     13  O4        18.7980  -20.6130   -9.0670 O.2     1  MOL1       -0.2750
     14  N7        16.5240  -19.6060   -7.2910 N.am    1  MOL1       -0.3460
     15  C8        15.1120  -19.8120   -7.2290 C.2     1  MOL1        0.2580
     16  O9        14.5840  -20.2870   -6.1890 O.2     1  MOL1       -0.2710
     17 C10        14.2410  -19.4520   -8.3960 C.3     1  MOL1        0.1670
     18 O11        14.2710  -18.0450   -8.6250 O.3     1  MOL1       -0.4800
     19 C12        13.6380  -17.1400   -7.7680 C.ar    1  MOL1        0.1660
     20 C13        12.2280  -17.0870   -7.6740 C.ar    1  MOL1        0.0120
     21 C21        11.6360  -16.2180   -6.7420 C.ar    1  MOL1       -0.0540
     22 C22        12.4260  -15.3820   -5.9530 C.ar    1  MOL1       -0.0580
     23 C23        13.8150  -15.4000   -6.0840 C.ar    1  MOL1       -0.0160
     24 C24        14.4310  -16.2760   -6.9960 C.ar    1  MOL1        0.1610
     25 C14        11.3380  -17.9400   -8.5500 C.3     1  MOL1        0.0280
     26 N15        10.1400  -18.3740   -7.8020 N.3     1  MOL1       -0.2870
     27 C16        10.1900  -19.8110   -7.4870 C.3     1  MOL1        0.0640
     28 C17         9.0060  -20.1230   -8.3810 C.3     1  MOL1        0.2720
     29 F18         7.8850  -20.5500   -7.6910 F       1  MOL1       -0.2040
     30 F19         9.3250  -20.9110   -9.4750 F       1  MOL1       -0.2040
     31 C20         8.9960  -18.6390   -8.6910 C.3     1  MOL1        0.0640
     32 O25        15.8230  -16.3250   -7.1580 O.3     1  MOL1       -0.4930
     33 C26        16.6200  -15.2350   -7.6110 C.3     1  MOL1        0.0780
@<TRIPOS>BOND
     1    30    28    1
     2    10    11    1
     3    13    12    2
     4    31    28    1
     5    31    26    1
     6    18    17    1
     7    18    19    1
     8    25    26    1
     9    25    20    1
    10    17    15    1
    11    28    29    1
    12    28    27    1
    13    11    12   am
    14    12     9    1
    15    26    27    1
    16    19    20   ar
    17    19    24   ar
    18    20    21   ar
    19    33    32    1
    20    14    15   am
    21    14     8    1
    22    15    16    2
    23    32    24    1
    24    24    23   ar
    25    21    22   ar
    26     9     8    1
    27     8     1    1
    28    23    22   ar
    29     2     1   ar
    30     2     3   ar
    31     1     7   ar
    32     3     4   ar
    33     7     5   ar
    34     4     5   ar
    35     5     6    1
