@<TRIPOS>MOLECULE
L3024_0_out.pdbqt
 33 35 0 0 0
SMALL
GASTEIGER

@<TRIPOS>ATOM
      1 C27         8.7900  -20.3590   -9.5180 C.ar    1  MOL1       -0.0240
      2 C28         7.5050  -20.7000   -9.0590 C.ar    1  MOL1       -0.0570
      3 C29         7.0970  -22.0380   -9.0250 C.ar    1  MOL1       -0.0610
      4 C30         7.9660  -23.0470   -9.4480 C.ar    1  MOL1       -0.0480
      5 C31         9.2490  -22.7220   -9.9040 C.ar    1  MOL1        0.0180
      6 Br32       10.4460  -24.1060  -10.4620 Br      1  MOL1       -0.0510
      7 C33         9.6580  -21.3850   -9.9440 C.ar    1  MOL1       -0.0430
      8  C6         9.1970  -18.9050   -9.6200 C.3     1  MOL1        0.0630
      9  C5         9.1530  -18.4470  -11.0880 C.3     1  MOL1        0.0510
     10  C1         6.2920  -15.8190  -10.8090 C.3     1  MOL1        0.0060
     11  N2         7.4950  -16.5930  -10.5410 N.am    1  MOL1       -0.3590
     12  C3         7.9010  -17.6740  -11.3870 C.2     1  MOL1        0.2220
     13  O4         7.2080  -17.9830  -12.3940 O.2     1  MOL1       -0.2750
     14  N7        10.5390  -18.7130   -9.0590 N.am    1  MOL1       -0.3460
     15  C8        10.8580  -17.6290   -8.1830 C.2     1  MOL1        0.2580
     16  O9         9.9770  -16.7850   -7.8700 O.2     1  MOL1       -0.2710
     17 C10        12.2390  -17.4940   -7.6160 C.3     1  MOL1        0.1670
     18 O11        13.2050  -17.4400   -8.6640 O.3     1  MOL1       -0.4800
     19 C12        14.5770  -17.5340   -8.4130 C.ar    1  MOL1        0.1660
     20 C13        15.2300  -18.7880   -8.3810 C.ar    1  MOL1        0.0120
     21 C21        16.6230  -18.8310   -8.2040 C.ar    1  MOL1       -0.0540
     22 C22        17.3490  -17.6550   -8.0150 C.ar    1  MOL1       -0.0580
     23 C23        16.6950  -16.4230   -7.9970 C.ar    1  MOL1       -0.0160
     24 C24        15.3030  -16.3530   -8.1920 C.ar    1  MOL1        0.1610
     25 C14        14.4680  -20.0870   -8.5290 C.3     1  MOL1        0.0280
     26 N15        14.3660  -20.7760   -7.2270 N.3     1  MOL1       -0.2870
     27 C16        14.2700  -22.2370   -7.3930 C.3     1  MOL1        0.0640
     28 C17        12.8560  -22.2800   -6.8480 C.3     1  MOL1        0.2720
     29 F18        12.7470  -22.9420   -5.6380 F       1  MOL1       -0.2040
     30 F19        11.9090  -22.6610   -7.7850 F       1  MOL1       -0.2040
     31 C20        12.9890  -20.7760   -6.7050 C.3     1  MOL1        0.0640
     32 O25        14.6090  -15.1350   -8.1800 O.3     1  MOL1       -0.4930
     33 C26        14.1280  -14.4930   -7.0040 C.3     1  MOL1        0.0780
@<TRIPOS>BOND
     1    13    12    2
     2    12     9    1
     3    12    11   am
     4     9     8    1
     5    10    11    1
     6     6     5    1
     7     7     5   ar
     8     7     1   ar
     9     5     4   ar
    10     8     1    1
    11     8    14    1
    12     1     2   ar
    13     4     3   ar
    14     2     3   ar
    15    14    15   am
    16    18    19    1
    17    18    17    1
    18    25    20    1
    19    25    26    1
    20    19    20   ar
    21    19    24   ar
    22    20    21   ar
    23    21    22   ar
    24    24    32    1
    25    24    23   ar
    26    15    16    2
    27    15    17    1
    28    32    33    1
    29    22    23   ar
    30    30    28    1
    31    27    26    1
    32    27    28    1
    33    26    31    1
    34    28    31    1
    35    28    29    1
