@<TRIPOS>MOLECULE
L3024_0_out.pdbqt
 33 35 0 0 0
SMALL
GASTEIGER

@<TRIPOS>ATOM
      1 C27         5.0960  -15.6050   -9.3470 C.ar    1  MOL1       -0.0240
      2 C28         5.6150  -16.0930   -8.1340 C.ar    1  MOL1       -0.0570
      3 C29         4.8190  -16.1200   -6.9840 C.ar    1  MOL1       -0.0610
      4 C30         3.5000  -15.6610   -7.0330 C.ar    1  MOL1       -0.0480
      5 C31         2.9700  -15.1760   -8.2350 C.ar    1  MOL1        0.0180
      6 Br32        1.1580  -14.5690   -8.3070 Br      1  MOL1       -0.0510
      7 C33         3.7650  -15.1430   -9.3850 C.ar    1  MOL1       -0.0430
      8  C6         5.9860  -15.5110  -10.5680 C.3     1  MOL1        0.0630
      9  C5         5.1470  -15.1440  -11.8050 C.3     1  MOL1        0.0510
     10  C1         3.7550  -11.6250  -12.7300 C.3     1  MOL1        0.0060
     11  N2         3.8800  -13.0640  -12.5530 N.am    1  MOL1       -0.3590
     12  C3         5.0530  -13.6560  -11.9840 C.2     1  MOL1        0.2220
     13  O4         6.0180  -12.9270  -11.6250 O.2     1  MOL1       -0.2750
     14  N7         6.6920  -16.7800  -10.7810 N.am    1  MOL1       -0.3460
     15  C8         7.9350  -17.0840  -10.1460 C.2     1  MOL1        0.2580
     16  O9         8.4760  -16.2480   -9.3750 O.2     1  MOL1       -0.2710
     17 C10         8.6010  -18.4070  -10.3780 C.3     1  MOL1        0.1670
     18 O11         8.3070  -19.3080   -9.3120 O.3     1  MOL1       -0.4800
     19 C12         8.4990  -20.6870   -9.4330 C.ar    1  MOL1        0.1660
     20 C13         7.4230  -21.5510   -9.7410 C.ar    1  MOL1        0.0120
     21 C21         7.6760  -22.9190   -9.9300 C.ar    1  MOL1       -0.0540
     22 C22         8.9640  -23.4310   -9.7700 C.ar    1  MOL1       -0.0580
     23 C23        10.0150  -22.5840   -9.4170 C.ar    1  MOL1       -0.0160
     24 C24         9.7900  -21.2060   -9.2420 C.ar    1  MOL1        0.1610
     25 C14         6.0050  -21.0410   -9.8700 C.3     1  MOL1        0.0280
     26 N15         5.0860  -21.8610   -9.0530 N.3     1  MOL1       -0.2870
     27 C16         3.6970  -21.3800   -9.1530 C.3     1  MOL1        0.0640
     28 C17         3.6600  -20.9630   -7.6960 C.3     1  MOL1        0.2720
     29 F18         2.7860  -21.7120   -6.9260 F       1  MOL1       -0.2040
     30 F19         3.5400  -19.5960   -7.5100 F       1  MOL1       -0.2040
     31 C20         5.0920  -21.4570   -7.6360 C.3     1  MOL1        0.0640
     32 O25        10.8190  -20.3220   -8.8860 O.3     1  MOL1       -0.4930
     33 C26        11.8930  -20.6470   -8.0090 C.3     1  MOL1        0.0780
@<TRIPOS>BOND
     1    10    11    1
     2    11    12   am
     3    12     9    1
     4    12    13    2
     5     9     8    1
     6    14     8    1
     7    14    15   am
     8     8     1    1
     9    17    15    1
    10    17    18    1
    11    15    16    2
    12    21    22   ar
    13    21    20   ar
    14    25    20    1
    15    25    26    1
    16    22    23   ar
    17    20    19   ar
    18    19    18    1
    19    19    24   ar
    20    23    24   ar
    21     7     1   ar
    22     7     5   ar
    23     1     2   ar
    24    24    32    1
    25    27    26    1
    26    27    28    1
    27    26    31    1
    28    32    33    1
    29     6     5    1
    30     5     4   ar
    31     2     3   ar
    32    28    31    1
    33    28    30    1
    34    28    29    1
    35     4     3   ar
