@<TRIPOS>MOLECULE
L3024_0_out.pdbqt
 33 35 0 0 0
SMALL
GASTEIGER

@<TRIPOS>ATOM
      1 C27        15.3350  -18.0280   -1.2240 C.ar    1  MOL1       -0.0240
      2 C28        15.0220  -19.1210   -2.0520 C.ar    1  MOL1       -0.0570
      3 C29        15.0870  -20.4270   -1.5560 C.ar    1  MOL1       -0.0610
      4 C30        15.4640  -20.6550   -0.2300 C.ar    1  MOL1       -0.0480
      5 C31        15.7750  -19.5770    0.6060 C.ar    1  MOL1        0.0180
      6 Br32       16.2710  -19.8890    2.4280 Br      1  MOL1       -0.0510
      7 C33        15.7170  -18.2700    0.1120 C.ar    1  MOL1       -0.0430
      8  C6        15.3330  -16.6240   -1.7890 C.3     1  MOL1        0.0630
      9  C5        14.3680  -15.7340   -0.9850 C.3     1  MOL1        0.0510
     10  C1        16.7910  -13.6730    1.2630 C.3     1  MOL1        0.0060
     11  N2        16.0750  -14.7810    0.6480 N.am    1  MOL1       -0.3590
     12  C3        15.0830  -14.5690   -0.3630 C.2     1  MOL1        0.2220
     13  O4        14.8040  -13.3990   -0.7400 O.2     1  MOL1       -0.2750
     14  N7        14.9560  -16.6470   -3.2060 N.am    1  MOL1       -0.3460
     15  C8        15.4900  -15.7260   -4.1590 C.2     1  MOL1        0.2580
     16  O9        16.3120  -14.8420   -3.7970 O.2     1  MOL1       -0.2710
     17 C10        15.0910  -15.8110   -5.6020 C.3     1  MOL1        0.1670
     18 O11        14.5130  -17.0830   -5.8860 O.3     1  MOL1       -0.4800
     19 C12        14.9560  -17.8790   -6.9450 C.ar    1  MOL1        0.1660
     20 C13        14.2580  -17.9170   -8.1730 C.ar    1  MOL1        0.0120
     21 C21        14.7830  -18.6690   -9.2370 C.ar    1  MOL1       -0.0540
     22 C22        15.9540  -19.4090   -9.0710 C.ar    1  MOL1       -0.0580
     23 C23        16.6140  -19.4100   -7.8420 C.ar    1  MOL1       -0.0160
     24 C24        16.1180  -18.6480   -6.7680 C.ar    1  MOL1        0.1610
     25 C14        12.9570  -17.1710   -8.3740 C.3     1  MOL1        0.0280
     26 N15        11.8620  -17.8380   -7.6410 N.3     1  MOL1       -0.2870
     27 C16        11.3450  -19.0020   -8.3810 C.3     1  MOL1        0.0640
     28 C17         9.9940  -18.3520   -8.6040 C.3     1  MOL1        0.2720
     29 F18         8.9570  -18.9830   -7.9380 F       1  MOL1       -0.2040
     30 F19         9.7210  -18.0770   -9.9340 F       1  MOL1       -0.2040
     31 C20        10.5660  -17.1690   -7.8490 C.3     1  MOL1        0.0640
     32 O25        16.7510  -18.6220   -5.5170 O.3     1  MOL1       -0.4930
     33 C26        18.1420  -18.3850   -5.3230 C.3     1  MOL1        0.0780
@<TRIPOS>BOND
     1    30    28    1
     2    21    22   ar
     3    21    20   ar
     4    22    23   ar
     5    28    27    1
     6    28    29    1
     7    28    31    1
     8    27    26    1
     9    25    20    1
    10    25    26    1
    11    20    19   ar
    12    31    26    1
    13    23    24   ar
    14    19    24   ar
    15    19    18    1
    16    24    32    1
    17    18    17    1
    18    17    15    1
    19    32    33    1
    20    15    16    2
    21    15    14   am
    22    14     8    1
    23     2     3   ar
    24     2     1   ar
    25     8     1    1
    26     8     9    1
    27     3     4   ar
    28     1     7   ar
    29     9    12    1
    30    13    12    2
    31    12    11   am
    32     4     5   ar
    33     7     5   ar
    34     5     6    1
    35    11    10    1
