@<TRIPOS>MOLECULE
L3024_0_out.pdbqt
 33 35 0 0 0
SMALL
GASTEIGER

@<TRIPOS>ATOM
      1 C27        17.6310  -18.8570   -5.1810 C.ar    1  MOL1       -0.0240
      2 C28        18.4310  -17.7270   -5.4280 C.ar    1  MOL1       -0.0570
      3 C29        18.4030  -16.6350   -4.5540 C.ar    1  MOL1       -0.0610
      4 C30        17.5780  -16.6610   -3.4270 C.ar    1  MOL1       -0.0480
      5 C31        16.7790  -17.7800   -3.1670 C.ar    1  MOL1        0.0180
      6 Br32       15.6650  -17.8230   -1.6120 Br      1  MOL1       -0.0510
      7 C33        16.8000  -18.8710   -4.0420 C.ar    1  MOL1       -0.0430
      8  C6        17.6130  -20.0030   -6.1700 C.3     1  MOL1        0.0630
      9  C5        19.0120  -20.1930   -6.7830 C.3     1  MOL1        0.0510
     10  C1        18.7290  -21.2730  -10.5150 C.3     1  MOL1        0.0060
     11  N2        18.7840  -21.3100   -9.0610 N.am    1  MOL1       -0.3590
     12  C3        18.9700  -20.1230   -8.2820 C.2     1  MOL1        0.2220
     13  O4        19.0960  -19.0050   -8.8540 O.2     1  MOL1       -0.2750
     14  N7        16.6180  -19.7520   -7.2190 N.am    1  MOL1       -0.3460
     15  C8        15.2770  -20.2380   -7.1390 C.2     1  MOL1        0.2580
     16  O9        14.9060  -20.9180   -6.1460 O.2     1  MOL1       -0.2710
     17 C10        14.2930  -19.9310   -8.2280 C.3     1  MOL1        0.1670
     18 O11        14.2810  -18.5330   -8.5100 O.3     1  MOL1       -0.4800
     19 C12        13.4080  -17.6540   -7.8630 C.ar    1  MOL1        0.1660
     20 C13        12.0120  -17.7190   -8.0790 C.ar    1  MOL1        0.0120
     21 C21        11.1650  -16.8690   -7.3480 C.ar    1  MOL1       -0.0540
     22 C22        11.6960  -15.9370   -6.4560 C.ar    1  MOL1       -0.0580
     23 C23        13.0770  -15.8410   -6.2820 C.ar    1  MOL1       -0.0160
     24 C24        13.9440  -16.6950   -6.9880 C.ar    1  MOL1        0.1610
     25 C14        11.4040  -18.6790   -9.0780 C.3     1  MOL1        0.0280
     26 N15         9.9510  -18.4430   -9.2020 N.3     1  MOL1       -0.2870
     27 C16         9.1760  -19.6500   -8.8700 C.3     1  MOL1        0.0640
     28 C17         8.6640  -19.8000  -10.2890 C.3     1  MOL1        0.2720
     29 F18         7.3000  -19.6010  -10.4120 F       1  MOL1       -0.2040
     30 F19         9.1250  -20.9380  -10.9310 F       1  MOL1       -0.2040
     31 C20         9.4860  -18.5630  -10.5940 C.3     1  MOL1        0.0640
     32 O25        15.3370  -16.6300   -6.8420 O.3     1  MOL1       -0.4930
     33 C26        16.2160  -16.0160   -7.7780 C.3     1  MOL1        0.0780
@<TRIPOS>BOND
     1    30    28    1
     2    31    28    1
     3    31    26    1
     4    10    11    1
     5    29    28    1
     6    28    27    1
     7    26    25    1
     8    26    27    1
     9    25    20    1
    10    11    12   am
    11    13    12    2
    12    18    17    1
    13    18    19    1
    14    12     9    1
    15    17    15    1
    16    20    19   ar
    17    20    21   ar
    18    19    24   ar
    19    33    32    1
    20    21    22   ar
    21    14    15   am
    22    14     8    1
    23    15    16    2
    24    24    32    1
    25    24    23   ar
    26     9     8    1
    27    22    23   ar
    28     8     1    1
    29     2     1   ar
    30     2     3   ar
    31     1     7   ar
    32     3     4   ar
    33     7     5   ar
    34     4     5   ar
    35     5     6    1
