@<TRIPOS>MOLECULE
L3024_0_out.pdbqt
 33 35 0 0 0
SMALL
GASTEIGER

@<TRIPOS>ATOM
      1 C27        15.4110  -18.8530   -1.6690 C.ar    1  MOL1       -0.0240
      2 C28        15.3380  -20.2460   -1.4840 C.ar    1  MOL1       -0.0570
      3 C29        14.6860  -20.7790   -0.3670 C.ar    1  MOL1       -0.0610
      4 C30        14.1010  -19.9280    0.5750 C.ar    1  MOL1       -0.0480
      5 C31        14.1630  -18.5410    0.4010 C.ar    1  MOL1        0.0180
      6 Br32       13.3420  -17.3780    1.6800 Br      1  MOL1       -0.0510
      7 C33        14.8190  -18.0050   -0.7110 C.ar    1  MOL1       -0.0430
      8  C6        16.1810  -18.2840   -2.8410 C.3     1  MOL1        0.0630
      9  C5        16.5990  -16.8330   -2.5420 C.3     1  MOL1        0.0510
     10  C1        13.9060  -14.5400   -4.1730 C.3     1  MOL1        0.0060
     11  N2        14.5710  -15.4840   -3.2870 N.am    1  MOL1       -0.3590
     12  C3        15.9380  -15.8650   -3.4800 C.2     1  MOL1        0.2220
     13  O4        16.5980  -15.3850   -4.4410 O.2     1  MOL1       -0.2750
     14  N7        15.3680  -18.3460   -4.0610 N.am    1  MOL1       -0.3460
     15  C8        15.5100  -19.3900   -5.0270 C.2     1  MOL1        0.2580
     16  O9        16.3640  -20.3010   -4.8570 O.2     1  MOL1       -0.2710
     17 C10        14.6360  -19.4200   -6.2440 C.3     1  MOL1        0.1670
     18 O11        15.3130  -18.8440   -7.3590 O.3     1  MOL1       -0.4800
     19 C12        15.3440  -17.4640   -7.5760 C.ar    1  MOL1        0.1660
     20 C13        14.1510  -16.7100   -7.6630 C.ar    1  MOL1        0.0120
     21 C21        14.2310  -15.3150   -7.8020 C.ar    1  MOL1       -0.0540
     22 C22        15.4710  -14.6830   -7.9020 C.ar    1  MOL1       -0.0580
     23 C23        16.6460  -15.4340   -7.8660 C.ar    1  MOL1       -0.0160
     24 C24        16.5910  -16.8320   -7.7080 C.ar    1  MOL1        0.1610
     25 C14        12.7890  -17.3660   -7.6110 C.3     1  MOL1        0.0280
     26 N15        12.1490  -17.3290   -8.9420 N.3     1  MOL1       -0.2870
     27 C16        10.7330  -17.7300   -8.8730 C.3     1  MOL1        0.0640
     28 C17        10.9740  -18.9860   -9.6880 C.3     1  MOL1        0.2720
     29 F18        10.3600  -18.9690  -10.9280 F       1  MOL1       -0.2040
     30 F19        10.7720  -20.1580   -8.9780 F       1  MOL1       -0.2040
     31 C20        12.4240  -18.5460   -9.7250 C.3     1  MOL1        0.0640
     32 O25        17.7480  -17.6230   -7.6680 O.3     1  MOL1       -0.4930
     33 C26        18.4440  -17.9750   -6.4770 C.3     1  MOL1        0.0780
@<TRIPOS>BOND
     1    29    28    1
     2    31    28    1
     3    31    26    1
     4    28    30    1
     5    28    27    1
     6    26    27    1
     7    26    25    1
     8    22    23   ar
     9    22    21   ar
    10    23    24   ar
    11    21    20   ar
    12    24    32    1
    13    24    19   ar
    14    32    33    1
    15    20    25    1
    16    20    19   ar
    17    19    18    1
    18    18    17    1
    19    17    15    1
    20    15    16    2
    21    15    14   am
    22    13    12    2
    23    10    11    1
    24    14     8    1
    25    12    11   am
    26    12     9    1
    27     8     9    1
    28     8     1    1
    29     1     2   ar
    30     1     7   ar
    31     2     3   ar
    32     7     5   ar
    33     3     4   ar
    34     5     4   ar
    35     5     6    1
