@<TRIPOS>MOLECULE
L3024_0_out.pdbqt
 33 35 0 0 0
SMALL
GASTEIGER

@<TRIPOS>ATOM
      1 C27         9.2620  -18.7860   -9.3670 C.ar    1  MOL1       -0.0240
      2 C28         9.2840  -17.8120   -8.3520 C.ar    1  MOL1       -0.0570
      3 C29         8.5770  -16.6140   -8.5060 C.ar    1  MOL1       -0.0610
      4 C30         7.8420  -16.3780   -9.6720 C.ar    1  MOL1       -0.0480
      5 C31         7.8090  -17.3410  -10.6870 C.ar    1  MOL1        0.0180
      6 Br32        6.7860  -17.0270  -12.2720 Br      1  MOL1       -0.0510
      7 C33         8.5200  -18.5370  -10.5390 C.ar    1  MOL1       -0.0430
      8  C6        10.0880  -20.0460   -9.2240 C.3     1  MOL1        0.0630
      9  C5         9.1640  -21.2670   -9.0620 C.3     1  MOL1        0.0510
     10  C1        10.9000  -24.5870  -10.1270 C.3     1  MOL1        0.0060
     11  N2        10.4450  -23.4510   -9.3400 N.am    1  MOL1       -0.3590
     12  C3         9.6250  -22.4220   -9.9040 C.2     1  MOL1        0.2220
     13  O4         9.2800  -22.4810  -11.1160 O.2     1  MOL1       -0.2750
     14  N7        10.9970  -19.9310   -8.0780 N.am    1  MOL1       -0.3460
     15  C8        12.3300  -19.4310   -8.2010 C.2     1  MOL1        0.2580
     16  O9        12.7740  -19.0760   -9.3250 O.2     1  MOL1       -0.2710
     17 C10        13.2080  -19.3090   -6.9920 C.3     1  MOL1        0.1670
     18 O11        14.2920  -18.4200   -7.2500 O.3     1  MOL1       -0.4800
     19 C12        15.4950  -18.4920   -6.5420 C.ar    1  MOL1        0.1660
     20 C13        15.7380  -17.6560   -5.4280 C.ar    1  MOL1        0.0120
     21 C21        16.9270  -17.8160   -4.6980 C.ar    1  MOL1       -0.0540
     22 C22        17.8800  -18.7560   -5.0930 C.ar    1  MOL1       -0.0580
     23 C23        17.6600  -19.5450   -6.2210 C.ar    1  MOL1       -0.0160
     24 C24        16.4670  -19.4160   -6.9580 C.ar    1  MOL1        0.1610
     25 C14        14.7530  -16.5900   -5.0020 C.3     1  MOL1        0.0280
     26 N15        15.1180  -15.2850   -5.5910 N.3     1  MOL1       -0.2870
     27 C16        13.9600  -14.6370   -6.2310 C.3     1  MOL1        0.0640
     28 C17        14.5670  -14.7550   -7.6150 C.3     1  MOL1        0.2720
     29 F18        14.8930  -13.5360   -8.1840 F       1  MOL1       -0.2040
     30 F19        13.8670  -15.6000   -8.4610 F       1  MOL1       -0.2040
     31 C20        15.7340  -15.4290   -6.9210 C.3     1  MOL1        0.0640
     32 O25        16.2080  -20.1900   -8.0980 O.3     1  MOL1       -0.4930
     33 C26        16.3930  -21.5990   -8.1750 C.3     1  MOL1        0.0780
@<TRIPOS>BOND
     1     6     5    1
     2    13    12    2
     3     5     7   ar
     4     5     4   ar
     5     7     1   ar
     6    10    11    1
     7    12    11   am
     8    12     9    1
     9     4     3   ar
    10     1     8    1
    11     1     2   ar
    12    16    15    2
    13     8     9    1
    14     8    14    1
    15     3     2   ar
    16    30    28    1
    17    15    14   am
    18    15    17    1
    19    29    28    1
    20    33    32    1
    21    32    24    1
    22    28    31    1
    23    28    27    1
    24    18    17    1
    25    18    19    1
    26    24    19   ar
    27    24    23   ar
    28    31    26    1
    29    19    20   ar
    30    27    26    1
    31    23    22   ar
    32    26    25    1
    33    20    25    1
    34    20    21   ar
    35    22    21   ar
