@<TRIPOS>MOLECULE
L3024_0_out.pdbqt
 33 35 0 0 0
SMALL
GASTEIGER

@<TRIPOS>ATOM
      1 C27         8.2330  -20.1720   -9.8100 C.ar    1  MOL1       -0.0240
      2 C28         9.0140  -21.1830  -10.3990 C.ar    1  MOL1       -0.0570
      3 C29         8.4250  -22.3850  -10.8080 C.ar    1  MOL1       -0.0610
      4 C30         7.0540  -22.5890  -10.6320 C.ar    1  MOL1       -0.0480
      5 C31         6.2650  -21.5910  -10.0500 C.ar    1  MOL1        0.0180
      6 Br32        4.3840  -21.8630   -9.8300 Br      1  MOL1       -0.0510
      7 C33         6.8510  -20.3900   -9.6360 C.ar    1  MOL1       -0.0430
      8  C6         8.8890  -18.9060   -9.3050 C.3     1  MOL1        0.0630
      9  C5         8.0900  -17.6760   -9.7710 C.3     1  MOL1        0.0510
     10  C1         5.5730  -16.3170   -7.1270 C.3     1  MOL1        0.0060
     11  N2         6.1450  -17.0370   -8.2550 N.am    1  MOL1       -0.3590
     12  C3         7.5270  -16.9110   -8.6080 C.2     1  MOL1        0.2220
     13  O4         8.2840  -16.1570   -7.9380 O.2     1  MOL1       -0.2750
     14  N7        10.2760  -18.8290   -9.7760 N.am    1  MOL1       -0.3460
     15  C8        11.3580  -18.4460   -8.9240 C.2     1  MOL1        0.2580
     16  O9        11.1430  -18.1470   -7.7200 O.2     1  MOL1       -0.2710
     17 C10        12.7610  -18.4100   -9.4510 C.3     1  MOL1        0.1670
     18 O11        13.6950  -18.6430   -8.3990 O.3     1  MOL1       -0.4800
     19 C12        15.0590  -18.3790   -8.5470 C.ar    1  MOL1        0.1660
     20 C13        15.5710  -17.0700   -8.3950 C.ar    1  MOL1        0.0120
     21 C21        16.9590  -16.8630   -8.4730 C.ar    1  MOL1       -0.0540
     22 C22        17.8190  -17.9270   -8.7470 C.ar    1  MOL1       -0.0580
     23 C23        17.3060  -19.2090   -8.9470 C.ar    1  MOL1       -0.0160
     24 C24        15.9220  -19.4440   -8.8530 C.ar    1  MOL1        0.1610
     25 C14        14.6650  -15.8830   -8.1500 C.3     1  MOL1        0.0280
     26 N15        14.8090  -15.4020   -6.7610 N.3     1  MOL1       -0.2870
     27 C16        14.1180  -16.2870   -5.8070 C.3     1  MOL1        0.0640
     28 C17        13.1070  -15.2200   -5.4370 C.3     1  MOL1        0.2720
     29 F18        13.2200  -14.7780   -4.1300 F       1  MOL1       -0.2040
     30 F19        11.8100  -15.5240   -5.8160 F       1  MOL1       -0.2040
     31 C20        13.8370  -14.3440   -6.4360 C.3     1  MOL1        0.0640
     32 O25        15.3670  -20.7170   -9.0470 O.3     1  MOL1       -0.4930
     33 C26        15.7850  -21.8920   -8.3610 C.3     1  MOL1        0.0780
@<TRIPOS>BOND
     1     3     4   ar
     2     3     2   ar
     3     4     5   ar
     4     2     1   ar
     5     5     6    1
     6     5     7   ar
     7     1     7   ar
     8     1     8    1
     9    14     8    1
    10    14    15   am
    11     9     8    1
    12     9    12    1
    13    17    15    1
    14    17    18    1
    15    32    24    1
    16    32    33    1
    17    23    24   ar
    18    23    22   ar
    19    15    16    2
    20    24    19   ar
    21    22    21   ar
    22    12    11   am
    23    12    13    2
    24    19    18    1
    25    19    20   ar
    26    21    20   ar
    27    20    25    1
    28    11    10    1
    29    25    26    1
    30    26    31    1
    31    26    27    1
    32    31    28    1
    33    30    28    1
    34    27    28    1
    35    28    29    1
