@<TRIPOS>MOLECULE
L3024_0_out.pdbqt
 33 35 0 0 0
SMALL
GASTEIGER

@<TRIPOS>ATOM
      1 C27        16.0630  -18.7370   -3.6250 C.ar    1  MOL1       -0.0240
      2 C28        15.3860  -19.4530   -2.6210 C.ar    1  MOL1       -0.0570
      3 C29        15.2440  -18.9120   -1.3390 C.ar    1  MOL1       -0.0610
      4 C30        15.7760  -17.6530   -1.0460 C.ar    1  MOL1       -0.0480
      5 C31        16.4480  -16.9280   -2.0370 C.ar    1  MOL1        0.0180
      6 Br32       17.1560  -15.1950   -1.6410 Br      1  MOL1       -0.0510
      7 C33        16.5970  -17.4680   -3.3180 C.ar    1  MOL1       -0.0430
      8  C6        16.2750  -19.3600   -4.9870 C.3     1  MOL1        0.0630
      9  C5        17.3340  -18.5640   -5.7720 C.3     1  MOL1        0.0510
     10  C1        19.3590  -21.2500   -7.7360 C.3     1  MOL1        0.0060
     11  N2        18.8040  -20.4460   -6.6560 N.am    1  MOL1       -0.3590
     12  C3        17.8970  -19.3680   -6.9080 C.2     1  MOL1        0.2220
     13  O4        17.5610  -19.0870   -8.0910 O.2     1  MOL1       -0.2750
     14  N7        15.0100  -19.4060   -5.7280 N.am    1  MOL1       -0.3460
     15  C8        14.4700  -20.6200   -6.2540 C.2     1  MOL1        0.2580
     16  O9        15.0870  -21.7080   -6.1010 O.2     1  MOL1       -0.2710
     17 C10        13.1590  -20.6150   -6.9810 C.3     1  MOL1        0.1670
     18 O11        13.0740  -19.4870   -7.8490 O.3     1  MOL1       -0.4800
     19 C12        11.9100  -18.7220   -7.9590 C.ar    1  MOL1        0.1660
     20 C13        11.8700  -17.3830   -7.5070 C.ar    1  MOL1        0.0120
     21 C21        10.7040  -16.6260   -7.7100 C.ar    1  MOL1       -0.0540
     22 C22         9.5810  -17.2020   -8.3040 C.ar    1  MOL1       -0.0580
     23 C23         9.6060  -18.5380   -8.7030 C.ar    1  MOL1       -0.0160
     24 C24        10.7690  -19.3100   -8.5290 C.ar    1  MOL1        0.1610
     25 C14        13.0500  -16.7420   -6.8110 C.3     1  MOL1        0.0280
     26 N15        13.8370  -15.9350   -7.7660 N.3     1  MOL1       -0.2870
     27 C16        15.2210  -16.4250   -7.8760 C.3     1  MOL1        0.0640
     28 C17        15.7940  -15.1620   -7.2630 C.3     1  MOL1        0.2720
     29 F18        16.5510  -14.4100   -8.1450 F       1  MOL1       -0.2040
     30 F19        16.4010  -15.3650   -6.0340 F       1  MOL1       -0.2040
     31 C20        14.3550  -14.6990   -7.1540 C.3     1  MOL1        0.0640
     32 O25        10.8350  -20.6570   -8.9150 O.3     1  MOL1       -0.4930
     33 C26         9.7000  -21.4840   -9.1480 C.3     1  MOL1        0.0780
@<TRIPOS>BOND
     1    33    32    1
     2    32    24    1
     3    23    24   ar
     4    23    22   ar
     5    24    19   ar
     6    22    21   ar
     7    29    28    1
     8    13    12    2
     9    19    18    1
    10    19    20   ar
    11    27    26    1
    12    27    28    1
    13    18    17    1
    14    26    31    1
    15    26    25    1
    16    10    11    1
    17    21    20   ar
    18    20    25    1
    19    28    31    1
    20    28    30    1
    21    17    15    1
    22    12    11   am
    23    12     9    1
    24    15    16    2
    25    15    14   am
    26     9     8    1
    27    14     8    1
    28     8     1    1
    29     1     7   ar
    30     1     2   ar
    31     7     5   ar
    32     2     3   ar
    33     5     6    1
    34     5     4   ar
    35     3     4   ar
