@<TRIPOS>MOLECULE
L3024_0_out.pdbqt
 33 35 0 0 0
SMALL
GASTEIGER

@<TRIPOS>ATOM
      1 C27        13.3610  -19.4180   -7.1010 C.ar    1  MOL1       -0.0240
      2 C28        14.5690  -19.2500   -6.4000 C.ar    1  MOL1       -0.0570
      3 C29        15.2070  -20.3500   -5.8150 C.ar    1  MOL1       -0.0610
      4 C30        14.6460  -21.6250   -5.9250 C.ar    1  MOL1       -0.0480
      5 C31        13.4470  -21.8070   -6.6230 C.ar    1  MOL1        0.0180
      6 Br32       12.6920  -23.5560   -6.7910 Br      1  MOL1       -0.0510
      7 C33        12.8040  -20.7090   -7.2040 C.ar    1  MOL1       -0.0430
      8  C6        12.6410  -18.2140   -7.6680 C.3     1  MOL1        0.0630
      9  C5        11.6850  -18.6520   -8.7920 C.3     1  MOL1        0.0510
     10  C1         8.1760  -17.2920   -9.7990 C.3     1  MOL1        0.0060
     11  N2         9.4200  -18.0480   -9.7890 N.am    1  MOL1       -0.3590
     12  C3        10.4170  -17.8480   -8.7800 C.2     1  MOL1        0.2220
     13  O4        10.2330  -16.9940   -7.8700 O.2     1  MOL1       -0.2750
     14  N7        13.6090  -17.2310   -8.1660 N.am    1  MOL1       -0.3460
     15  C8        13.7620  -15.9360   -7.5800 C.2     1  MOL1        0.2580
     16  O9        13.0460  -15.5930   -6.6020 O.2     1  MOL1       -0.2710
     17 C10        14.7850  -14.9790   -8.1130 C.3     1  MOL1        0.1670
     18 O11        15.8370  -14.7960   -7.1680 O.3     1  MOL1       -0.4800
     19 C12        16.5280  -15.8740   -6.6090 C.ar    1  MOL1        0.1660
     20 C13        17.2540  -16.7770   -7.4190 C.ar    1  MOL1        0.0120
     21 C21        17.9980  -17.8000   -6.8090 C.ar    1  MOL1       -0.0540
     22 C22        17.9840  -17.9550   -5.4220 C.ar    1  MOL1       -0.0580
     23 C23        17.2260  -17.0950   -4.6280 C.ar    1  MOL1       -0.0160
     24 C24        16.4880  -16.0500   -5.2160 C.ar    1  MOL1        0.1610
     25 C14        17.2500  -16.6720   -8.9280 C.3     1  MOL1        0.0280
     26 N15        17.8000  -17.9030   -9.5320 N.3     1  MOL1       -0.2870
     27 C16        18.7220  -17.5980  -10.6390 C.3     1  MOL1        0.0640
     28 C17        17.8040  -18.2200  -11.6720 C.3     1  MOL1        0.2720
     29 F18        18.3200  -19.3620  -12.2590 F       1  MOL1       -0.2040
     30 F19        17.2860  -17.3090  -12.5780 F       1  MOL1       -0.2040
     31 C20        16.8750  -18.5040  -10.5080 C.3     1  MOL1        0.0640
     32 O25        15.7140  -15.1640   -4.4530 O.3     1  MOL1       -0.4930
     33 C26        15.8240  -15.0070   -3.0420 C.3     1  MOL1        0.0780
@<TRIPOS>BOND
     1    30    28    1
     2    29    28    1
     3    28    27    1
     4    28    31    1
     5    27    26    1
     6    31    26    1
     7    10    11    1
     8    11    12   am
     9    26    25    1
    10    25    20    1
    11     9    12    1
    12     9     8    1
    13    12    13    2
    14    14     8    1
    15    14    15   am
    16    17    15    1
    17    17    18    1
    18     8     1    1
    19    15    16    2
    20    20    21   ar
    21    20    19   ar
    22     7     1   ar
    23     7     5   ar
    24    18    19    1
    25     1     2   ar
    26    21    22   ar
    27     6     5    1
    28     5     4   ar
    29    19    24   ar
    30     2     3   ar
    31     4     3   ar
    32    22    23   ar
    33    24    23   ar
    34    24    32    1
    35    32    33    1
