@<TRIPOS>MOLECULE
L3024_0_out.pdbqt
 33 35 0 0 0
SMALL
GASTEIGER

@<TRIPOS>ATOM
      1 C27         6.7690  -19.3860   -9.7710 C.ar    1  MOL1       -0.0240
      2 C28         6.8330  -20.2550  -10.8750 C.ar    1  MOL1       -0.0570
      3 C29         6.1970  -21.5010  -10.8330 C.ar    1  MOL1       -0.0610
      4 C30         5.4930  -21.8900   -9.6900 C.ar    1  MOL1       -0.0480
      5 C31         5.4190  -21.0330   -8.5860 C.ar    1  MOL1        0.0180
      6 Br32        4.4360  -21.5580   -7.0310 Br      1  MOL1       -0.0510
      7 C33         6.0580  -19.7900   -8.6230 C.ar    1  MOL1       -0.0430
      8  C6         7.5200  -18.0720   -9.7980 C.3     1  MOL1        0.0630
      9  C5         7.8740  -17.6960  -11.2480 C.3     1  MOL1        0.0510
     10  C1         5.4310  -14.6730  -11.5070 C.3     1  MOL1        0.0060
     11  N2         6.3670  -15.6590  -10.9870 N.am    1  MOL1       -0.3590
     12  C3         6.9020  -16.7000  -11.8110 C.2     1  MOL1        0.2220
     13  O4         6.5610  -16.7850  -13.0230 O.2     1  MOL1       -0.2750
     14  N7         8.7320  -18.1630   -8.9770 N.am    1  MOL1       -0.3460
     15  C8         9.3280  -17.0210   -8.3570 C.2     1  MOL1        0.2580
     16  O9         8.8220  -15.8780   -8.5100 O.2     1  MOL1       -0.2710
     17 C10        10.5530  -17.1740   -7.5060 C.3     1  MOL1        0.1670
     18 O11        11.6620  -17.5930   -8.2980 O.3     1  MOL1       -0.4800
     19 C12        12.5530  -18.5770   -7.8630 C.ar    1  MOL1        0.1660
     20 C13        13.6970  -18.2440   -7.1010 C.ar    1  MOL1        0.0120
     21 C21        14.5230  -19.2720   -6.6190 C.ar    1  MOL1       -0.0540
     22 C22        14.2480  -20.6050   -6.9270 C.ar    1  MOL1       -0.0580
     23 C23        13.1470  -20.9280   -7.7210 C.ar    1  MOL1       -0.0160
     24 C24        12.2940  -19.9160   -8.1990 C.ar    1  MOL1        0.1610
     25 C14        14.0560  -16.8070   -6.7920 C.3     1  MOL1        0.0280
     26 N15        15.4480  -16.7180   -6.3050 N.3     1  MOL1       -0.2870
     27 C16        15.7760  -15.3560   -5.8510 C.3     1  MOL1        0.0640
     28 C17        16.7870  -15.1500   -6.9620 C.3     1  MOL1        0.2720
     29 F18        18.0920  -15.0440   -6.5130 F       1  MOL1       -0.2040
     30 F19        16.4250  -14.1690   -7.8710 F       1  MOL1       -0.2040
     31 C20        16.4120  -16.5510   -7.4060 C.3     1  MOL1        0.0640
     32 O25        11.1790  -20.1990   -9.0010 O.3     1  MOL1       -0.4930
     33 C26        10.3330  -21.3320   -8.8340 C.3     1  MOL1        0.0780
@<TRIPOS>BOND
     1    13    12    2
     2    12     9    1
     3    12    11   am
     4    10    11    1
     5     9     8    1
     6     2     3   ar
     7     2     1   ar
     8     3     4   ar
     9     8     1    1
    10     8    14    1
    11     1     7   ar
    12     4     5   ar
    13    32    33    1
    14    32    24    1
    15    14    15   am
    16     7     5   ar
    17     5     6    1
    18    16    15    2
    19    15    17    1
    20    18    19    1
    21    18    17    1
    22    24    19   ar
    23    24    23   ar
    24    30    28    1
    25    19    20   ar
    26    23    22   ar
    27    31    28    1
    28    31    26    1
    29    20    25    1
    30    20    21   ar
    31    28    29    1
    32    28    27    1
    33    22    21   ar
    34    25    26    1
    35    26    27    1
