@<TRIPOS>MOLECULE
L3024_0_out.pdbqt
 33 35 0 0 0
SMALL
GASTEIGER

@<TRIPOS>ATOM
      1 C27         5.2630  -15.1610  -10.3090 C.ar    1  MOL1       -0.0240
      2 C28         4.0760  -14.8140   -9.6380 C.ar    1  MOL1       -0.0570
      3 C29         3.1760  -13.9100  -10.2130 C.ar    1  MOL1       -0.0610
      4 C30         3.4510  -13.3450  -11.4610 C.ar    1  MOL1       -0.0480
      5 C31         4.6260  -13.6840  -12.1410 C.ar    1  MOL1        0.0180
      6 Br32        4.9910  -12.9270  -13.8600 Br      1  MOL1       -0.0510
      7 C33         5.5310  -14.5840  -11.5670 C.ar    1  MOL1       -0.0430
      8  C6         6.2650  -16.0830   -9.6490 C.3     1  MOL1        0.0630
      9  C5         7.3390  -16.5100  -10.6650 C.3     1  MOL1        0.0510
     10  C1        10.0780  -17.2780   -8.0050 C.3     1  MOL1        0.0060
     11  N2         8.9410  -16.6850   -8.6930 N.am    1  MOL1       -0.3590
     12  C3         8.5220  -17.1360   -9.9860 C.2     1  MOL1        0.2220
     13  O4         9.1460  -18.0680  -10.5630 O.2     1  MOL1       -0.2750
     14  N7         5.5850  -17.2570   -9.0910 N.am    1  MOL1       -0.3460
     15  C8         5.2870  -17.3850   -7.7000 C.2     1  MOL1        0.2580
     16  O9         5.6170  -16.4750   -6.8930 O.2     1  MOL1       -0.2710
     17 C10         4.5660  -18.5960   -7.1860 C.3     1  MOL1        0.1670
     18 O11         5.3910  -19.7530   -7.3000 O.3     1  MOL1       -0.4800
     19 C12         5.3250  -20.6050   -8.4050 C.ar    1  MOL1        0.1660
     20 C13         4.1150  -21.2380   -8.7690 C.ar    1  MOL1        0.0120
     21 C21         4.0750  -22.0230   -9.9340 C.ar    1  MOL1       -0.0540
     22 C22         5.2260  -22.2170  -10.6970 C.ar    1  MOL1       -0.0580
     23 C23         6.4320  -21.6320  -10.3080 C.ar    1  MOL1       -0.0160
     24 C24         6.4910  -20.8250   -9.1560 C.ar    1  MOL1        0.1610
     25 C14         2.8590  -21.0940   -7.9380 C.3     1  MOL1        0.0280
     26 N15         1.8850  -22.1470   -8.2890 N.3     1  MOL1       -0.2870
     27 C16         0.6710  -21.5800   -8.9000 C.3     1  MOL1        0.0640
     28 C17        -0.2020  -22.0010   -7.7340 C.3     1  MOL1        0.2720
     29 F18        -1.1320  -22.9730   -8.0590 F       1  MOL1       -0.2040
     30 F19        -0.7270  -20.9370   -7.0190 F       1  MOL1       -0.2040
     31 C20         1.0720  -22.5610   -7.1320 C.3     1  MOL1        0.0640
     32 O25         7.6830  -20.2200   -8.7310 O.3     1  MOL1       -0.4930
     33 C26         8.9550  -20.8600   -8.7280 C.3     1  MOL1        0.0780
@<TRIPOS>BOND
     1     6     5    1
     2     5     7   ar
     3     5     4   ar
     4     7     1   ar
     5     4     3   ar
     6    22    23   ar
     7    22    21   ar
     8     9    12    1
     9     9     8    1
    10    13    12    2
    11     1     8    1
    12     1     2   ar
    13    23    24   ar
    14     3     2   ar
    15    12    11   am
    16    21    20   ar
    17     8    14    1
    18    24    32    1
    19    24    19   ar
    20    14    15   am
    21    27    26    1
    22    27    28    1
    23    20    19   ar
    24    20    25    1
    25    32    33    1
    26    11    10    1
    27    19    18    1
    28    26    25    1
    29    26    31    1
    30    29    28    1
    31    28    31    1
    32    28    30    1
    33    15    17    1
    34    15    16    2
    35    18    17    1
