@<TRIPOS>MOLECULE
L3024_0_out.pdbqt
 33 35 0 0 0
SMALL
GASTEIGER

@<TRIPOS>ATOM
      1 C27         7.8540  -19.4560   -9.0950 C.ar    1  MOL1       -0.0240
      2 C28         8.3030  -20.3850  -10.0520 C.ar    1  MOL1       -0.0570
      3 C29         7.6930  -21.6390  -10.1610 C.ar    1  MOL1       -0.0610
      4 C30         6.6320  -21.9790   -9.3180 C.ar    1  MOL1       -0.0480
      5 C31         6.1730  -21.0630   -8.3640 C.ar    1  MOL1        0.0180
      6 Br32        4.7050  -21.5210   -7.2260 Br      1  MOL1       -0.0510
      7 C33         6.7830  -19.8100   -8.2490 C.ar    1  MOL1       -0.0430
      8  C6         8.5650  -18.1300   -8.9350 C.3     1  MOL1        0.0630
      9  C5         8.3510  -17.2620  -10.1880 C.3     1  MOL1        0.0510
     10  C1         5.3380  -14.9960  -11.1700 C.3     1  MOL1        0.0060
     11  N2         6.5600  -15.7850  -11.2360 N.am    1  MOL1       -0.3590
     12  C3         7.0940  -16.4480  -10.0840 C.2     1  MOL1        0.2220
     13  O4         6.5060  -16.3540   -8.9720 O.2     1  MOL1       -0.2750
     14  N7         9.9960  -18.3470   -8.6950 N.am    1  MOL1       -0.3460
     15  C8        10.7710  -17.4980   -7.8450 C.2     1  MOL1        0.2580
     16  O9        10.2350  -16.5120   -7.2740 O.2     1  MOL1       -0.2710
     17 C10        12.2250  -17.7810   -7.6140 C.3     1  MOL1        0.1670
     18 O11        13.0320  -16.9710   -8.4660 O.3     1  MOL1       -0.4800
     19 C12        14.3980  -16.7860   -8.2370 C.ar    1  MOL1        0.1660
     20 C13        15.3400  -17.7800   -8.5890 C.ar    1  MOL1        0.0120
     21 C21        16.7090  -17.5200   -8.4140 C.ar    1  MOL1       -0.0540
     22 C22        17.1350  -16.3150   -7.8550 C.ar    1  MOL1       -0.0580
     23 C23        16.2010  -15.3560   -7.4620 C.ar    1  MOL1       -0.0160
     24 C24        14.8250  -15.5860   -7.6460 C.ar    1  MOL1        0.1610
     25 C14        14.9130  -19.1190   -9.1490 C.3     1  MOL1        0.0280
     26 N15        15.4260  -20.2180   -8.3050 N.3     1  MOL1       -0.2870
     27 C16        14.6010  -21.4310   -8.4350 C.3     1  MOL1        0.0640
     28 C17        14.1290  -21.3520   -6.9970 C.3     1  MOL1        0.2720
     29 F18        14.5880  -22.3890   -6.2030 F       1  MOL1       -0.2040
     30 F19        12.7720  -21.1060   -6.8680 F       1  MOL1       -0.2040
     31 C20        14.9800  -20.1000   -6.9070 C.3     1  MOL1        0.0640
     32 O25        13.8550  -14.6480   -7.2630 O.3     1  MOL1       -0.4930
     33 C26        13.0770  -14.7340   -6.0740 C.3     1  MOL1        0.0780
@<TRIPOS>BOND
     1    11    10    1
     2    11    12   am
     3     9    12    1
     4     9     8    1
     5     3     2   ar
     6     3     4   ar
     7    12    13    2
     8     2     1   ar
     9     4     5   ar
    10    25    20    1
    11    25    26    1
    12     1     8    1
    13     1     7   ar
    14     8    14    1
    15    14    15   am
    16    20    21   ar
    17    20    19   ar
    18    18    19    1
    19    18    17    1
    20    27    26    1
    21    27    28    1
    22    21    22   ar
    23     5     7   ar
    24     5     6    1
    25    26    31    1
    26    19    24   ar
    27    22    23   ar
    28    15    17    1
    29    15    16    2
    30    24    23   ar
    31    24    32    1
    32    32    33    1
    33    28    31    1
    34    28    30    1
    35    28    29    1
