@<TRIPOS>MOLECULE
L3024_0_out.pdbqt
 33 35 0 0 0
SMALL
GASTEIGER

@<TRIPOS>ATOM
      1 C27         6.3450  -19.7640   -8.9410 C.ar    1  MOL1       -0.0240
      2 C28         5.6730  -19.2430   -7.8200 C.ar    1  MOL1       -0.0570
      3 C29         4.4120  -19.7330   -7.4600 C.ar    1  MOL1       -0.0610
      4 C30         3.8110  -20.7440   -8.2140 C.ar    1  MOL1       -0.0480
      5 C31         4.4710  -21.2740   -9.3290 C.ar    1  MOL1        0.0180
      6 Br32        3.6570  -22.6740  -10.3480 Br      1  MOL1       -0.0510
      7 C33         5.7280  -20.7830   -9.6950 C.ar    1  MOL1       -0.0430
      8  C6         7.6750  -19.1800   -9.3650 C.3     1  MOL1        0.0630
      9  C5         7.5620  -18.5870  -10.7810 C.3     1  MOL1        0.0510
     10  C1         5.9870  -15.1340  -11.6580 C.3     1  MOL1        0.0060
     11  N2         6.3240  -16.5500  -11.6790 N.am    1  MOL1       -0.3590
     12  C3         7.2420  -17.1210  -10.7400 C.2     1  MOL1        0.2220
     13  O4         7.7880  -16.3920   -9.8670 O.2     1  MOL1       -0.2750
     14  N7         8.7200  -20.2080   -9.3180 N.am    1  MOL1       -0.3460
     15  C8         9.9010  -20.0680   -8.5250 C.2     1  MOL1        0.2580
     16  O9        10.0840  -19.0290   -7.8370 O.2     1  MOL1       -0.2710
     17 C10        10.9260  -21.1610   -8.4920 C.3     1  MOL1        0.1670
     18 O11        12.0080  -20.8050   -7.6350 O.3     1  MOL1       -0.4800
     19 C12        13.3420  -20.9310   -8.0330 C.ar    1  MOL1        0.1660
     20 C13        14.0880  -19.8080   -8.4580 C.ar    1  MOL1        0.0120
     21 C21        15.4470  -19.9670   -8.7740 C.ar    1  MOL1       -0.0540
     22 C22        16.0450  -21.2260   -8.7160 C.ar    1  MOL1       -0.0580
     23 C23        15.2940  -22.3420   -8.3450 C.ar    1  MOL1       -0.0160
     24 C24        13.9350  -22.2040   -8.0050 C.ar    1  MOL1        0.1610
     25 C14        13.4610  -18.4370   -8.5840 C.3     1  MOL1        0.0280
     26 N15        13.4930  -17.7330   -7.2860 N.3     1  MOL1       -0.2870
     27 C16        12.6980  -16.4940   -7.3210 C.3     1  MOL1        0.0640
     28 C17        13.9210  -15.6170   -7.1460 C.3     1  MOL1        0.2720
     29 F18        13.9510  -14.9370   -5.9410 F       1  MOL1       -0.2040
     30 F19        14.1980  -14.8210   -8.2460 F       1  MOL1       -0.2040
     31 C20        14.7070  -16.9140   -7.1280 C.3     1  MOL1        0.0640
     32 O25        13.1460  -23.3000   -7.6280 O.3     1  MOL1       -0.4930
     33 C26        12.8030  -23.6210   -6.2840 C.3     1  MOL1        0.0780
@<TRIPOS>BOND
     1    11    10    1
     2    11    12   am
     3     9    12    1
     4     9     8    1
     5    12    13    2
     6     6     5    1
     7     7     5   ar
     8     7     1   ar
     9     8    14    1
    10     8     1    1
    11     5     4   ar
    12    14    15   am
    13     1     2   ar
    14    21    22   ar
    15    21    20   ar
    16    22    23   ar
    17    25    20    1
    18    25    26    1
    19    15    17    1
    20    15    16    2
    21    17    18    1
    22    20    19   ar
    23    23    24   ar
    24    30    28    1
    25     4     3   ar
    26    19    24   ar
    27    19    18    1
    28    24    32    1
    29     2     3   ar
    30    32    33    1
    31    27    26    1
    32    27    28    1
    33    26    31    1
    34    28    31    1
    35    28    29    1
