@<TRIPOS>MOLECULE
L3024_0_out.pdbqt
 33 35 0 0 0
SMALL
GASTEIGER

@<TRIPOS>ATOM
      1 C27        13.9300  -16.2910   -5.9080 C.ar    1  MOL1       -0.0240
      2 C28        13.3660  -15.0670   -5.5070 C.ar    1  MOL1       -0.0570
      3 C29        13.8630  -14.3920   -4.3870 C.ar    1  MOL1       -0.0610
      4 C30        14.9260  -14.9320   -3.6570 C.ar    1  MOL1       -0.0480
      5 C31        15.4980  -16.1480   -4.0480 C.ar    1  MOL1        0.0180
      6 Br32       16.9680  -16.8750   -3.0610 Br      1  MOL1       -0.0510
      7 C33        15.0010  -16.8280   -5.1640 C.ar    1  MOL1       -0.0430
      8  C6        13.3400  -17.0500   -7.0770 C.3     1  MOL1        0.0630
      9  C5        14.2510  -16.9110   -8.3100 C.3     1  MOL1        0.0510
     10  C1        16.8000  -19.6090   -9.4930 C.3     1  MOL1        0.0060
     11  N2        16.2060  -18.3390   -9.1020 N.am    1  MOL1       -0.3590
     12  C3        14.8310  -18.2350   -8.7190 C.2     1  MOL1        0.2220
     13  O4        14.0950  -19.2590   -8.7190 O.2     1  MOL1       -0.2750
     14  N7        11.9910  -16.5570   -7.3740 N.am    1  MOL1       -0.3460
     15  C8        10.8680  -17.4290   -7.5180 C.2     1  MOL1        0.2580
     16  O9        11.0120  -18.6750   -7.4010 O.2     1  MOL1       -0.2710
     17 C10         9.5040  -16.8700   -7.7950 C.3     1  MOL1        0.1670
     18 O11         8.6870  -17.8460   -8.4370 O.3     1  MOL1       -0.4800
     19 C12         8.1490  -17.6400   -9.7110 C.ar    1  MOL1        0.1660
     20 C13         8.6980  -18.2770  -10.8480 C.ar    1  MOL1        0.0120
     21 C21         8.0780  -18.1040  -12.0960 C.ar    1  MOL1       -0.0540
     22 C22         6.9630  -17.2770  -12.2240 C.ar    1  MOL1       -0.0580
     23 C23         6.4530  -16.6090  -11.1100 C.ar    1  MOL1       -0.0160
     24 C24         7.0450  -16.7820   -9.8460 C.ar    1  MOL1        0.1610
     25 C14         9.9380  -19.1390  -10.7570 C.3     1  MOL1        0.0280
     26 N15         9.5720  -20.5700  -10.7540 N.3     1  MOL1       -0.2870
     27 C16         8.1440  -20.7640  -10.4470 C.3     1  MOL1        0.0640
     28 C17         8.4460  -21.4560   -9.1320 C.3     1  MOL1        0.2720
     29 F18         8.0870  -22.7930   -9.1130 F       1  MOL1       -0.2040
     30 F19         8.0260  -20.7460   -8.0190 F       1  MOL1       -0.2040
     31 C20         9.9040  -21.2270   -9.4780 C.3     1  MOL1        0.0640
     32 O25         6.5650  -16.1290   -8.7020 O.3     1  MOL1       -0.4930
     33 C26         5.1860  -15.9350   -8.4050 C.3     1  MOL1        0.0780
@<TRIPOS>BOND
     1    22    21   ar
     2    22    23   ar
     3    21    20   ar
     4    23    24   ar
     5    20    25    1
     6    20    19   ar
     7    25    26    1
     8    26    27    1
     9    26    31    1
    10    27    28    1
    11    24    19   ar
    12    24    32    1
    13    19    18    1
    14    10    11    1
    15    31    28    1
    16    28    29    1
    17    28    30    1
    18    11    12   am
    19    12    13    2
    20    12     9    1
    21    32    33    1
    22    18    17    1
    23     9     8    1
    24    17    15    1
    25    15    16    2
    26    15    14   am
    27    14     8    1
    28     8     1    1
    29     1     2   ar
    30     1     7   ar
    31     2     3   ar
    32     7     5   ar
    33     3     4   ar
    34     5     4   ar
    35     5     6    1
