@<TRIPOS>MOLECULE
L3024_0_out.pdbqt
 33 35 0 0 0
SMALL
GASTEIGER

@<TRIPOS>ATOM
      1 C27        13.0840  -19.1250   -7.2370 C.ar    1  MOL1       -0.0240
      2 C28        12.2780  -20.2760   -7.3020 C.ar    1  MOL1       -0.0570
      3 C29        12.5250  -21.3610   -6.4540 C.ar    1  MOL1       -0.0610
      4 C30        13.5760  -21.3090   -5.5360 C.ar    1  MOL1       -0.0480
      5 C31        14.3840  -20.1690   -5.4590 C.ar    1  MOL1        0.0180
      6 Br32       15.8100  -20.0890   -4.1860 Br      1  MOL1       -0.0510
      7 C33        14.1440  -19.0840   -6.3080 C.ar    1  MOL1       -0.0430
      8  C6        12.8560  -17.9850   -8.2070 C.3     1  MOL1        0.0630
      9  C5        12.7530  -18.5280   -9.6430 C.3     1  MOL1        0.0510
     10  C1         8.9130  -17.8880   -9.7950 C.3     1  MOL1        0.0060
     11  N2        10.2850  -17.9860   -9.3180 N.am    1  MOL1       -0.3590
     12  C3        11.3460  -18.4480  -10.1610 C.2     1  MOL1        0.2220
     13  O4        11.1040  -18.7910  -11.3510 O.2     1  MOL1       -0.2750
     14  N7        13.9420  -17.0040   -8.1020 N.am    1  MOL1       -0.3460
     15  C8        13.8490  -15.8380   -7.2810 C.2     1  MOL1        0.2580
     16  O9        12.8030  -15.6100   -6.6180 O.2     1  MOL1       -0.2710
     17 C10        15.0000  -14.8810   -7.1910 C.3     1  MOL1        0.1670
     18 O11        16.1400  -15.4070   -7.8650 O.3     1  MOL1       -0.4800
     19 C12        16.9630  -16.3760   -7.2850 C.ar    1  MOL1        0.1660
     20 C13        17.3140  -16.3130   -5.9170 C.ar    1  MOL1        0.0120
     21 C21        18.0780  -17.3510   -5.3570 C.ar    1  MOL1       -0.0540
     22 C22        18.5270  -18.4070   -6.1500 C.ar    1  MOL1       -0.0580
     23 C23        18.2210  -18.4410   -7.5110 C.ar    1  MOL1       -0.0160
     24 C24        17.4410  -17.4230   -8.0900 C.ar    1  MOL1        0.1610
     25 C14        16.8910  -15.1570   -5.0380 C.3     1  MOL1        0.0280
     26 N15        16.3830  -15.6530   -3.7420 N.3     1  MOL1       -0.2870
     27 C16        15.0740  -16.3120   -3.8900 C.3     1  MOL1        0.0640
     28 C17        14.3640  -15.2470   -3.0780 C.3     1  MOL1        0.2720
     29 F18        13.8670  -15.7070   -1.8710 F       1  MOL1       -0.2040
     30 F19        13.4570  -14.4990   -3.8100 F       1  MOL1       -0.2040
     31 C20        15.7270  -14.5920   -2.9590 C.3     1  MOL1        0.0640
     32 O25        17.1130  -17.4190   -9.4530 O.3     1  MOL1       -0.4930
     33 C26        18.0050  -17.0400  -10.4960 C.3     1  MOL1        0.0780
@<TRIPOS>BOND
     1    13    12    2
     2    33    32    1
     3    12     9    1
     4    12    11   am
     5    10    11    1
     6     9     8    1
     7    32    24    1
     8     8    14    1
     9     8     1    1
    10    14    15   am
    11    24    23   ar
    12    24    19   ar
    13    18    19    1
    14    18    17    1
    15    23    22   ar
    16     2     1   ar
    17     2     3   ar
    18    19    20   ar
    19    15    17    1
    20    15    16    2
    21     1     7   ar
    22     3     4   ar
    23     7     5   ar
    24    22    21   ar
    25    20    21   ar
    26    20    25    1
    27     4     5   ar
    28     5     6    1
    29    25    26    1
    30    27    26    1
    31    27    28    1
    32    30    28    1
    33    26    31    1
    34    28    31    1
    35    28    29    1
