@<TRIPOS>MOLECULE
L3024_0_out.pdbqt
 33 35 0 0 0
SMALL
GASTEIGER

@<TRIPOS>ATOM
      1 C27        17.4440  -18.6710   -4.5720 C.ar    1  MOL1       -0.0240
      2 C28        17.9810  -17.3730   -4.4810 C.ar    1  MOL1       -0.0570
      3 C29        17.6530  -16.5460   -3.4010 C.ar    1  MOL1       -0.0610
      4 C30        16.7880  -17.0050   -2.4030 C.ar    1  MOL1       -0.0480
      5 C31        16.2500  -18.2940   -2.4800 C.ar    1  MOL1        0.0180
      6 Br32       15.0840  -18.9290   -1.1030 Br      1  MOL1       -0.0510
      7 C33        16.5710  -19.1220   -3.5610 C.ar    1  MOL1       -0.0430
      8  C6        17.7450  -19.5320   -5.7790 C.3     1  MOL1        0.0630
      9  C5        19.0670  -19.0840   -6.4300 C.3     1  MOL1        0.0510
     10  C1        20.0260  -20.4900   -9.9330 C.3     1  MOL1        0.0060
     11  N2        19.6000  -19.5950   -8.8670 N.am    1  MOL1       -0.3590
     12  C3        19.4990  -20.0340   -7.5090 C.2     1  MOL1        0.2220
     13  O4        19.7770  -21.2270   -7.2070 O.2     1  MOL1       -0.2750
     14  N7        16.6430  -19.4570   -6.7440 N.am    1  MOL1       -0.3460
     15  C8        15.6630  -20.4890   -6.8740 C.2     1  MOL1        0.2580
     16  O9        15.7260  -21.5190   -6.1520 O.2     1  MOL1       -0.2710
     17 C10        14.5410  -20.3500   -7.8590 C.3     1  MOL1        0.1670
     18 O11        13.2880  -20.2830   -7.1820 O.3     1  MOL1       -0.4800
     19 C12        12.3150  -19.3370   -7.5150 C.ar    1  MOL1        0.1660
     20 C13        12.5300  -17.9580   -7.2930 C.ar    1  MOL1        0.0120
     21 C21        11.5580  -17.0350   -7.7150 C.ar    1  MOL1       -0.0540
     22 C22        10.3730  -17.4760   -8.3030 C.ar    1  MOL1       -0.0580
     23 C23        10.1410  -18.8410   -8.4760 C.ar    1  MOL1       -0.0160
     24 C24        11.1080  -19.7820   -8.0790 C.ar    1  MOL1        0.1610
     25 C14        13.7790  -17.4460   -6.6100 C.3     1  MOL1        0.0280
     26 N15        14.0830  -16.0700   -7.0530 N.3     1  MOL1       -0.2870
     27 C16        14.9710  -16.0630   -8.2280 C.3     1  MOL1        0.0640
     28 C17        16.1080  -15.4230   -7.4570 C.3     1  MOL1        0.2720
     29 F18        16.4130  -14.1410   -7.8790 F       1  MOL1       -0.2040
     30 F19        17.2140  -16.2440   -7.3110 F       1  MOL1       -0.2040
     31 C20        15.1690  -15.4600   -6.2670 C.3     1  MOL1        0.0640
     32 O25        10.9130  -21.1620   -8.2340 O.3     1  MOL1       -0.4930
     33 C26        10.0550  -21.7500   -9.2060 C.3     1  MOL1        0.0780
@<TRIPOS>BOND
     1    10    11    1
     2    33    32    1
     3    11    12   am
     4    23    22   ar
     5    23    24   ar
     6    22    21   ar
     7    32    24    1
     8    27    28    1
     9    27    26    1
    10    24    19   ar
    11    29    28    1
    12    17    18    1
    13    17    15    1
    14    21    20   ar
    15    19    20   ar
    16    19    18    1
    17    12    13    2
    18    12     9    1
    19    28    30    1
    20    28    31    1
    21    20    25    1
    22    26    25    1
    23    26    31    1
    24    15    14   am
    25    15    16    2
    26    14     8    1
    27     9     8    1
    28     8     1    1
    29     1     2   ar
    30     1     7   ar
    31     2     3   ar
    32     7     5   ar
    33     3     4   ar
    34     5     4   ar
    35     5     6    1
