@<TRIPOS>MOLECULE
L3024_0_out.pdbqt
 33 35 0 0 0
SMALL
GASTEIGER

@<TRIPOS>ATOM
      1 C27        14.3140  -20.2720   -6.0680 C.ar    1  MOL1       -0.0240
      2 C28        14.9600  -20.0900   -4.8320 C.ar    1  MOL1       -0.0570
      3 C29        15.8720  -19.0430   -4.6580 C.ar    1  MOL1       -0.0610
      4 C30        16.1470  -18.1700   -5.7140 C.ar    1  MOL1       -0.0480
      5 C31        15.5080  -18.3380   -6.9480 C.ar    1  MOL1        0.0180
      6 Br32       15.8690  -17.1290   -8.3860 Br      1  MOL1       -0.0510
      7 C33        14.6000  -19.3870   -7.1270 C.ar    1  MOL1       -0.0430
      8  C6        13.3840  -21.4490   -6.2700 C.3     1  MOL1        0.0630
      9  C5        14.1950  -22.7570   -6.3320 C.3     1  MOL1        0.0510
     10  C1        11.6330  -25.6900   -6.3120 C.3     1  MOL1        0.0060
     11  N2        12.4720  -24.5790   -5.8890 N.am    1  MOL1       -0.3590
     12  C3        13.3500  -23.9070   -6.7980 C.2     1  MOL1        0.2220
     13  O4        13.4170  -24.2770   -8.0020 O.2     1  MOL1       -0.2750
     14  N7        12.5970  -21.2710   -7.4950 N.am    1  MOL1       -0.3460
     15  C8        11.2530  -20.7880   -7.4820 C.2     1  MOL1        0.2580
     16  O9        10.6900  -20.5040   -6.3910 O.2     1  MOL1       -0.2710
     17 C10        10.5020  -20.5990   -8.7660 C.3     1  MOL1        0.1670
     18 O11        10.7540  -19.3040   -9.3060 O.3     1  MOL1       -0.4800
     19 C12         9.8740  -18.2360   -9.1140 C.ar    1  MOL1        0.1660
     20 C13         8.7130  -18.0940   -9.9080 C.ar    1  MOL1        0.0120
     21 C21         7.8150  -17.0500   -9.6280 C.ar    1  MOL1       -0.0540
     22 C22         8.0880  -16.1350   -8.6110 C.ar    1  MOL1       -0.0580
     23 C23         9.2590  -16.2480   -7.8620 C.ar    1  MOL1       -0.0160
     24 C24        10.1630  -17.2970   -8.1100 C.ar    1  MOL1        0.1610
     25 C14         8.4110  -19.0340  -11.0540 C.3     1  MOL1        0.0280
     26 N15         7.0660  -19.6240  -10.8960 N.3     1  MOL1       -0.2870
     27 C16         6.9170  -20.2920   -9.5920 C.3     1  MOL1        0.0640
     28 C17         6.7880  -21.6630  -10.2260 C.3     1  MOL1        0.2720
     29 F18         5.5370  -22.2330  -10.0650 F       1  MOL1       -0.2040
     30 F19         7.8370  -22.5170   -9.9270 F       1  MOL1       -0.2040
     31 C20         6.9570  -20.9410  -11.5480 C.3     1  MOL1        0.0640
     32 O25        11.3520  -17.4460   -7.3810 O.3     1  MOL1       -0.4930
     33 C26        12.2680  -16.3900   -7.1100 C.3     1  MOL1        0.0780
@<TRIPOS>BOND
     1    31    26    1
     2    31    28    1
     3    25    26    1
     4    25    20    1
     5    26    27    1
     6    28    29    1
     7    28    30    1
     8    28    27    1
     9    20    21   ar
    10    20    19   ar
    11    21    22   ar
    12    18    19    1
    13    18    17    1
    14    19    24   ar
    15    17    15    1
    16    22    23   ar
    17     6     5    1
    18    24    23   ar
    19    24    32    1
    20    13    12    2
    21    14    15   am
    22    14     8    1
    23    15    16    2
    24    32    33    1
    25     7     5   ar
    26     7     1   ar
    27     5     4   ar
    28    12     9    1
    29    12    11   am
    30     9     8    1
    31    10    11    1
    32     8     1    1
    33     1     2   ar
    34     4     3   ar
    35     2     3   ar
