@<TRIPOS>MOLECULE
L3024_0_out.pdbqt
 33 35 0 0 0
SMALL
GASTEIGER

@<TRIPOS>ATOM
      1 C27        16.8440  -18.6550   -8.5540 C.ar    1  MOL1       -0.0240
      2 C28        17.8030  -19.6290   -8.2220 C.ar    1  MOL1       -0.0570
      3 C29        19.0260  -19.6760   -8.8980 C.ar    1  MOL1       -0.0610
      4 C30        19.3050  -18.7540   -9.9110 C.ar    1  MOL1       -0.0480
      5 C31        18.3610  -17.7780  -10.2490 C.ar    1  MOL1        0.0180
      6 Br32       18.7510  -16.5020  -11.6200 Br      1  MOL1       -0.0510
      7 C33        17.1340  -17.7310   -9.5790 C.ar    1  MOL1       -0.0430
      8  C6        15.4940  -18.6560   -7.8690 C.3     1  MOL1        0.0630
      9  C5        14.8350  -17.2710   -8.0000 C.3     1  MOL1        0.0510
     10  C1        11.2600  -18.1620   -9.2650 C.3     1  MOL1        0.0060
     11  N2        12.7070  -18.0340   -9.1740 N.am    1  MOL1       -0.3590
     12  C3        13.3390  -17.3780   -8.0700 C.2     1  MOL1        0.2220
     13  O4        12.6400  -16.8870   -7.1420 O.2     1  MOL1       -0.2750
     14  N7        15.6420  -19.0250   -6.4570 N.am    1  MOL1       -0.3460
     15  C8        14.7420  -19.9180   -5.7970 C.2     1  MOL1        0.2580
     16  O9        13.7680  -20.4160   -6.4230 O.2     1  MOL1       -0.2710
     17 C10        14.9540  -20.2830   -4.3590 C.3     1  MOL1        0.1670
     18 O11        15.8530  -19.3670   -3.7390 O.3     1  MOL1       -0.4800
     19 C12        15.4760  -18.5840   -2.6450 C.ar    1  MOL1        0.1660
     20 C13        15.0710  -17.2400   -2.8120 C.ar    1  MOL1        0.0120
     21 C21        14.6240  -16.5140   -1.6950 C.ar    1  MOL1       -0.0540
     22 C22        14.6250  -17.0950   -0.4270 C.ar    1  MOL1       -0.0580
     23 C23        15.0730  -18.4050   -0.2560 C.ar    1  MOL1       -0.0160
     24 C24        15.5060  -19.1580   -1.3630 C.ar    1  MOL1        0.1610
     25 C14        15.1060  -16.5600   -4.1630 C.3     1  MOL1        0.0280
     26 N15        16.1230  -15.4880   -4.1750 N.3     1  MOL1       -0.2870
     27 C16        16.3690  -14.9900   -5.5380 C.3     1  MOL1        0.0640
     28 C17        17.7910  -15.5150   -5.5530 C.3     1  MOL1        0.2720
     29 F18        18.7510  -14.5190   -5.5850 F       1  MOL1       -0.2040
     30 F19        18.0020  -16.5280   -6.4740 F       1  MOL1       -0.2040
     31 C20        17.4950  -16.0250   -4.1560 C.3     1  MOL1        0.0640
     32 O25        15.9640  -20.4770   -1.2340 O.3     1  MOL1       -0.4930
     33 C26        15.8970  -21.2400   -0.0340 C.3     1  MOL1        0.0780
@<TRIPOS>BOND
     1     6     5    1
     2     5     4   ar
     3     5     7   ar
     4     4     3   ar
     5     7     1   ar
     6    10    11    1
     7    11    12   am
     8     3     2   ar
     9     1     2   ar
    10     1     8    1
    11    12     9    1
    12    12    13    2
    13     9     8    1
    14     8    14    1
    15    30    28    1
    16    14    15   am
    17    16    15    2
    18    15    17    1
    19    29    28    1
    20    28    27    1
    21    28    31    1
    22    27    26    1
    23    17    18    1
    24    26    25    1
    25    26    31    1
    26    25    20    1
    27    18    19    1
    28    20    19   ar
    29    20    21   ar
    30    19    24   ar
    31    21    22   ar
    32    24    32    1
    33    24    23   ar
    34    32    33    1
    35    22    23   ar
