@<TRIPOS>MOLECULE
L3024_0_out.pdbqt
 33 35 0 0 0
SMALL
GASTEIGER

@<TRIPOS>ATOM
      1 C27         6.8100  -21.4870   -9.9570 C.ar    1  MOL1       -0.0240
      2 C28         5.8640  -21.9450  -10.8920 C.ar    1  MOL1       -0.0570
      3 C29         4.5400  -22.1780  -10.5020 C.ar    1  MOL1       -0.0610
      4 C30         4.1490  -21.9570   -9.1790 C.ar    1  MOL1       -0.0480
      5 C31         5.0800  -21.4980   -8.2400 C.ar    1  MOL1        0.0180
      6 Br32        4.5390  -21.1740   -6.4340 Br      1  MOL1       -0.0510
      7 C33         6.4050  -21.2690   -8.6240 C.ar    1  MOL1       -0.0430
      8  C6         8.2550  -21.3070  -10.3690 C.3     1  MOL1        0.0630
      9  C5         8.7260  -22.5240  -11.1850 C.3     1  MOL1        0.0510
     10  C1         9.8070  -25.2600   -8.6310 C.3     1  MOL1        0.0060
     11  N2         8.9980  -24.3540   -9.4350 N.am    1  MOL1       -0.3590
     12  C3         9.5880  -23.4380  -10.3630 C.2     1  MOL1        0.2220
     13  O4        10.8420  -23.3950  -10.4990 O.2     1  MOL1       -0.2750
     14  N7         9.1020  -21.1200   -9.1860 N.am    1  MOL1       -0.3460
     15  C8        10.1090  -20.1090   -9.1130 C.2     1  MOL1        0.2580
     16  O9        10.3090  -19.3400  -10.0900 O.2     1  MOL1       -0.2710
     17 C10        10.9290  -19.9440   -7.8680 C.3     1  MOL1        0.1670
     18 O11        12.3120  -19.8250   -8.1940 O.3     1  MOL1       -0.4800
     19 C12        13.3190  -20.1380   -7.2770 C.ar    1  MOL1        0.1660
     20 C13        14.0600  -19.1220   -6.6300 C.ar    1  MOL1        0.0120
     21 C21        15.0080  -19.4800   -5.6570 C.ar    1  MOL1       -0.0540
     22 C22        15.2520  -20.8220   -5.3660 C.ar    1  MOL1       -0.0580
     23 C23        14.5560  -21.8240   -6.0420 C.ar    1  MOL1       -0.0160
     24 C24        13.5870  -21.4900   -7.0060 C.ar    1  MOL1        0.1610
     25 C14        13.8600  -17.6590   -6.9570 C.3     1  MOL1        0.0280
     26 N15        15.1570  -16.9520   -6.9690 N.3     1  MOL1       -0.2870
     27 C16        15.0340  -15.5870   -6.4310 C.3     1  MOL1        0.0640
     28 C17        15.3570  -14.9510   -7.7690 C.3     1  MOL1        0.2720
     29 F18        16.5610  -14.2690   -7.7850 F       1  MOL1       -0.2040
     30 F19        14.3020  -14.2410   -8.3180 F       1  MOL1       -0.2040
     31 C20        15.4610  -16.3720   -8.2890 C.3     1  MOL1        0.0640
     32 O25        12.8660  -22.4670   -7.7090 O.3     1  MOL1       -0.4930
     33 C26        13.4160  -23.6940   -8.1750 C.3     1  MOL1        0.0780
@<TRIPOS>BOND
     1     9     8    1
     2     9    12    1
     3     2     3   ar
     4     2     1   ar
     5     3     4   ar
     6    13    12    2
     7     8     1    1
     8     8    14    1
     9    12    11   am
    10    16    15    2
    11     1     7   ar
    12    11    10    1
    13    14    15   am
    14     4     5   ar
    15    15    17    1
    16     7     5   ar
    17    30    28    1
    18    31    28    1
    19    31    26    1
    20     5     6    1
    21    18    17    1
    22    18    19    1
    23    33    32    1
    24    29    28    1
    25    28    27    1
    26    32    24    1
    27    19    24   ar
    28    19    20   ar
    29    24    23   ar
    30    26    25    1
    31    26    27    1
    32    25    20    1
    33    20    21   ar
    34    23    22   ar
    35    21    22   ar
