@<TRIPOS>MOLECULE
L3024_0_out.pdbqt
 33 35 0 0 0
SMALL
GASTEIGER

@<TRIPOS>ATOM
      1 C27         8.1800  -20.2480   -9.9400 C.ar    1  MOL1       -0.0240
      2 C28         6.8130  -20.4430  -10.2080 C.ar    1  MOL1       -0.0570
      3 C29         6.2960  -21.7360  -10.3420 C.ar    1  MOL1       -0.0610
      4 C30         7.1370  -22.8450  -10.2100 C.ar    1  MOL1       -0.0480
      5 C31         8.4980  -22.6650   -9.9400 C.ar    1  MOL1        0.0180
      6 Br32        9.6440  -24.1830   -9.7390 Br      1  MOL1       -0.0510
      7 C33         9.0190  -21.3730   -9.8110 C.ar    1  MOL1       -0.0430
      8  C6         8.7450  -18.8460   -9.8680 C.3     1  MOL1        0.0630
      9  C5         8.3760  -18.0630  -11.1410 C.3     1  MOL1        0.0510
     10  C1         5.8200  -15.1410  -11.4660 C.3     1  MOL1        0.0060
     11  N2         6.6180  -16.3250  -11.7540 N.am    1  MOL1       -0.3590
     12  C3         7.5760  -16.8340  -10.8190 C.2     1  MOL1        0.2220
     13  O4         7.7520  -16.2530   -9.7140 O.2     1  MOL1       -0.2750
     14  N7        10.2010  -18.8930   -9.6950 N.am    1  MOL1       -0.3460
     15  C8        10.8750  -18.1810   -8.6540 C.2     1  MOL1        0.2580
     16  O9        10.2220  -17.4690   -7.8450 O.2     1  MOL1       -0.2710
     17 C10        12.3630  -18.2850   -8.5060 C.3     1  MOL1        0.1670
     18 O11        12.7050  -18.7090   -7.1880 O.3     1  MOL1       -0.4800
     19 C12        13.8770  -19.4190   -6.9190 C.ar    1  MOL1        0.1660
     20 C13        14.9730  -18.8040   -6.2710 C.ar    1  MOL1        0.0120
     21 C21        16.1010  -19.5770   -5.9500 C.ar    1  MOL1       -0.0540
     22 C22        16.1620  -20.9240   -6.3070 C.ar    1  MOL1       -0.0580
     23 C23        15.1000  -21.5170   -6.9910 C.ar    1  MOL1       -0.0160
     24 C24        13.9510  -20.7680   -7.3060 C.ar    1  MOL1        0.1610
     25 C14        14.9650  -17.3340   -5.9160 C.3     1  MOL1        0.0280
     26 N15        16.0110  -16.6150   -6.6720 N.3     1  MOL1       -0.2870
     27 C16        16.0770  -15.1940   -6.2880 C.3     1  MOL1        0.0640
     28 C17        15.6150  -14.7280   -7.6550 C.3     1  MOL1        0.2720
     29 F18        16.5820  -14.0360   -8.3620 F       1  MOL1       -0.2040
     30 F19        14.3760  -14.1080   -7.6430 F       1  MOL1       -0.2040
     31 C20        15.5470  -16.2020   -8.0070 C.3     1  MOL1        0.0640
     32 O25        12.8630  -21.3250   -7.9930 O.3     1  MOL1       -0.4930
     33 C26        11.9700  -22.2870   -7.4420 C.3     1  MOL1        0.0780
@<TRIPOS>BOND
     1    11    10    1
     2    11    12   am
     3     9    12    1
     4     9     8    1
     5    12    13    2
     6     3     4   ar
     7     3     2   ar
     8     4     5   ar
     9     2     1   ar
    10     5     7   ar
    11     5     6    1
    12     1     8    1
    13     1     7   ar
    14     8    14    1
    15    14    15   am
    16    15    17    1
    17    15    16    2
    18    17    18    1
    19    29    28    1
    20    31    28    1
    21    31    26    1
    22    32    33    1
    23    32    24    1
    24    28    30    1
    25    28    27    1
    26    24    23   ar
    27    24    19   ar
    28    18    19    1
    29    23    22   ar
    30    19    20   ar
    31    26    27    1
    32    26    25    1
    33    22    21   ar
    34    20    21   ar
    35    20    25    1
