@<TRIPOS>MOLECULE
L3024_0_out.pdbqt
 33 35 0 0 0
SMALL
GASTEIGER

@<TRIPOS>ATOM
      1 C27         2.4690  -21.9460   -8.7680 C.ar    1  MOL1       -0.0240
      2 C28         1.7950  -21.2820   -7.7270 C.ar    1  MOL1       -0.0570
      3 C29         0.4170  -21.0550   -7.8090 C.ar    1  MOL1       -0.0610
      4 C30        -0.3000  -21.4870   -8.9290 C.ar    1  MOL1       -0.0480
      5 C31         0.3580  -22.1510   -9.9690 C.ar    1  MOL1        0.0180
      6 Br32       -0.6270  -22.7620  -11.4910 Br      1  MOL1       -0.0510
      7 C33         1.7370  -22.3750   -9.8930 C.ar    1  MOL1       -0.0430
      8  C6         3.9710  -22.1230   -8.7050 C.3     1  MOL1        0.0630
      9  C5         4.4940  -21.7010   -7.3200 C.3     1  MOL1        0.0510
     10  C1         5.2930  -17.8920   -7.4660 C.3     1  MOL1        0.0060
     11  N2         4.5760  -19.1570   -7.4080 N.am    1  MOL1       -0.3590
     12  C3         5.2620  -20.4130   -7.3900 C.2     1  MOL1        0.2220
     13  O4         6.5230  -20.4460   -7.4300 O.2     1  MOL1       -0.2750
     14  N7         4.6200  -21.3400   -9.7620 N.am    1  MOL1       -0.3460
     15  C8         5.7740  -21.8050  -10.4650 C.2     1  MOL1        0.2580
     16  O9         6.2840  -22.9220  -10.1820 O.2     1  MOL1       -0.2710
     17 C10         6.3830  -20.9760  -11.5560 C.3     1  MOL1        0.1670
     18 O11         7.7930  -20.8710  -11.3750 O.3     1  MOL1       -0.4800
     19 C12         8.3560  -20.0390  -10.4040 C.ar    1  MOL1        0.1660
     20 C13         7.8670  -18.7300  -10.1890 C.ar    1  MOL1        0.0120
     21 C21         8.4100  -17.9570   -9.1500 C.ar    1  MOL1       -0.0540
     22 C22         9.4530  -18.4540   -8.3680 C.ar    1  MOL1       -0.0580
     23 C23         9.9680  -19.7270   -8.6140 C.ar    1  MOL1       -0.0160
     24 C24         9.4270  -20.5270   -9.6370 C.ar    1  MOL1        0.1610
     25 C14         6.7740  -18.1370  -11.0510 C.3     1  MOL1        0.0280
     26 N15         7.1150  -16.7520  -11.4360 N.3     1  MOL1       -0.2870
     27 C16         6.3740  -15.7670  -10.6300 C.3     1  MOL1        0.0640
     28 C17         5.5890  -15.2690  -11.8270 C.3     1  MOL1        0.2720
     29 F18         5.8860  -13.9650  -12.1830 F       1  MOL1       -0.2040
     30 F19         4.2310  -15.5350  -11.7530 F       1  MOL1       -0.2040
     31 C20         6.3620  -16.3040  -12.6200 C.3     1  MOL1        0.0640
     32 O25         9.9170  -21.8110   -9.9170 O.3     1  MOL1       -0.4930
     33 C26         9.4010  -22.6670  -10.9310 C.3     1  MOL1        0.0780
@<TRIPOS>BOND
     1    31    28    1
     2    31    26    1
     3    29    28    1
     4    28    30    1
     5    28    27    1
     6    17    18    1
     7    17    15    1
     8     6     5    1
     9    26    25    1
    10    26    27    1
    11    18    19    1
    12    25    20    1
    13    33    32    1
    14    15    16    2
    15    15    14   am
    16    19    20   ar
    17    19    24   ar
    18    20    21   ar
    19     5     7   ar
    20     5     4   ar
    21    32    24    1
    22     7     1   ar
    23    14     8    1
    24    24    23   ar
    25    21    22   ar
    26     4     3   ar
    27     1     8    1
    28     1     2   ar
    29     8     9    1
    30    23    22   ar
    31     3     2   ar
    32    10    11    1
    33    13    12    2
    34    11    12   am
    35    12     9    1
