@<TRIPOS>MOLECULE
L3024_0_out.pdbqt
 33 35 0 0 0
SMALL
GASTEIGER

@<TRIPOS>ATOM
      1 C27         7.1920  -18.8080  -10.1240 C.ar    1  MOL1       -0.0240
      2 C28         7.1880  -19.7310  -11.1860 C.ar    1  MOL1       -0.0570
      3 C29         6.5230  -20.9550  -11.0570 C.ar    1  MOL1       -0.0610
      4 C30         5.8570  -21.2700   -9.8690 C.ar    1  MOL1       -0.0480
      5 C31         5.8500  -20.3590   -8.8070 C.ar    1  MOL1        0.0180
      6 Br32        4.9190  -20.7820   -7.1890 Br      1  MOL1       -0.0510
      7 C33         6.5180  -19.1370   -8.9300 C.ar    1  MOL1       -0.0430
      8  C6         7.9740  -17.5180  -10.2440 C.3     1  MOL1        0.0630
      9  C5         9.0990  -17.4830   -9.1940 C.3     1  MOL1        0.0510
     10  C1        10.9650  -20.8370   -8.5330 C.3     1  MOL1        0.0060
     11  N2        10.0690  -19.6980   -8.3950 N.am    1  MOL1       -0.3590
     12  C3        10.0420  -18.6390   -9.3580 C.2     1  MOL1        0.2220
     13  O4        10.8110  -18.6730  -10.3580 O.2     1  MOL1       -0.2750
     14  N7         7.0810  -16.3650  -10.0830 N.am    1  MOL1       -0.3460
     15  C8         6.3310  -15.8150  -11.1690 C.2     1  MOL1        0.2580
     16  O9         6.4280  -16.3120  -12.3230 O.2     1  MOL1       -0.2710
     17 C10         5.4130  -14.6520  -10.9440 C.3     1  MOL1        0.1670
     18 O11         4.3330  -14.6820  -11.8740 O.3     1  MOL1       -0.4800
     19 C12         3.4290  -13.6230  -11.9940 C.ar    1  MOL1        0.1660
     20 C13         2.2650  -13.5620  -11.1940 C.ar    1  MOL1        0.0120
     21 C21         1.4240  -12.4410  -11.2910 C.ar    1  MOL1       -0.0540
     22 C22         1.7060  -11.4210  -12.2000 C.ar    1  MOL1       -0.0580
     23 C23         2.8290  -11.5070  -13.0240 C.ar    1  MOL1       -0.0160
     24 C24         3.6960  -12.6110  -12.9310 C.ar    1  MOL1        0.1610
     25 C14         1.8970  -14.6740  -10.2360 C.3     1  MOL1        0.0280
     26 N15         2.0390  -14.2170   -8.8380 N.3     1  MOL1       -0.2870
     27 C16         3.3380  -14.6130   -8.2680 C.3     1  MOL1        0.0640
     28 C17         2.6950  -15.5500   -7.2650 C.3     1  MOL1        0.2720
     29 F18         2.8400  -15.1410   -5.9500 F       1  MOL1       -0.2040
     30 F19         2.9990  -16.8850   -7.4740 F       1  MOL1       -0.2040
     31 C20         1.3780  -15.1280   -7.8870 C.3     1  MOL1        0.0640
     32 O25         4.8340  -12.7360  -13.7410 O.3     1  MOL1       -0.4930
     33 C26         4.9790  -13.6960  -14.7830 C.3     1  MOL1        0.0780
@<TRIPOS>BOND
     1    33    32    1
     2    32    24    1
     3    23    24   ar
     4    23    22   ar
     5    24    19   ar
     6    16    15    2
     7    22    21   ar
     8    19    18    1
     9    19    20   ar
    10    18    17    1
    11    21    20   ar
    12    20    25    1
    13     2     3   ar
    14     2     1   ar
    15    15    17    1
    16    15    14   am
    17     3     4   ar
    18    13    12    2
    19     8     1    1
    20     8    14    1
    21     8     9    1
    22    25    26    1
    23     1     7   ar
    24     4     5   ar
    25    12     9    1
    26    12    11   am
    27     7     5   ar
    28    26    27    1
    29    26    31    1
    30     5     6    1
    31    10    11    1
    32    27    28    1
    33    31    28    1
    34    30    28    1
    35    28    29    1
