@<TRIPOS>MOLECULE
L3024_0_out.pdbqt
 33 35 0 0 0
SMALL
GASTEIGER

@<TRIPOS>ATOM
      1 C27         7.8620  -19.8070   -9.7360 C.ar    1  MOL1       -0.0240
      2 C28         8.2130  -21.1580   -9.9130 C.ar    1  MOL1       -0.0570
      3 C29         7.4250  -22.1730   -9.3600 C.ar    1  MOL1       -0.0610
      4 C30         6.2810  -21.8500   -8.6250 C.ar    1  MOL1       -0.0480
      5 C31         5.9180  -20.5110   -8.4440 C.ar    1  MOL1        0.0180
      6 Br32        4.3390  -20.0710   -7.4570 Br      1  MOL1       -0.0510
      7 C33         6.7070  -19.4930   -8.9910 C.ar    1  MOL1       -0.0430
      8  C6         8.7590  -18.7140  -10.2750 C.3     1  MOL1        0.0630
      9  C5         8.4390  -18.4540  -11.7580 C.3     1  MOL1        0.0510
     10  C1         6.1770  -15.3910  -10.9350 C.3     1  MOL1        0.0060
     11  N2         7.1160  -16.4970  -10.8070 N.am    1  MOL1       -0.3590
     12  C3         7.4600  -17.3270  -11.9210 C.2     1  MOL1        0.2220
     13  O4         6.9430  -17.1150  -13.0510 O.2     1  MOL1       -0.2750
     14  N7        10.1680  -19.0850  -10.1080 N.am    1  MOL1       -0.3460
     15  C8        11.0590  -18.3590   -9.2570 C.2     1  MOL1        0.2580
     16  O9        10.6500  -17.3520   -8.6210 O.2     1  MOL1       -0.2710
     17 C10        12.4840  -18.7970   -9.1020 C.3     1  MOL1        0.1670
     18 O11        12.7170  -19.2790   -7.7810 O.3     1  MOL1       -0.4800
     19 C12        13.9630  -19.7670   -7.3790 C.ar    1  MOL1        0.1660
     20 C13        15.0830  -18.9120   -7.2720 C.ar    1  MOL1        0.0120
     21 C21        16.2970  -19.4290   -6.7880 C.ar    1  MOL1       -0.0540
     22 C22        16.4110  -20.7800   -6.4620 C.ar    1  MOL1       -0.0580
     23 C23        15.3180  -21.6330   -6.6170 C.ar    1  MOL1       -0.0160
     24 C24        14.0870  -21.1340   -7.0810 C.ar    1  MOL1        0.1610
     25 C14        15.0120  -17.4530   -7.6650 C.3     1  MOL1        0.0280
     26 N15        14.4720  -16.6440   -6.5530 N.3     1  MOL1       -0.2870
     27 C16        13.3610  -15.7850   -6.9970 C.3     1  MOL1        0.0640
     28 C17        14.1470  -14.5140   -6.7460 C.3     1  MOL1        0.2720
     29 F18        13.6370  -13.7390   -5.7190 F       1  MOL1       -0.2040
     30 F19        14.4360  -13.8000   -7.8970 F       1  MOL1       -0.2040
     31 C20        15.2720  -15.4320   -6.3090 C.3     1  MOL1        0.0640
     32 O25        12.9650  -21.9580   -7.2510 O.3     1  MOL1       -0.4930
     33 C26        12.6360  -23.0560   -6.4060 C.3     1  MOL1        0.0780
@<TRIPOS>BOND
     1    13    12    2
     2    12     9    1
     3    12    11   am
     4     9     8    1
     5    10    11    1
     6     8    14    1
     7     8     1    1
     8    14    15   am
     9     2     1   ar
    10     2     3   ar
    11     1     7   ar
    12     3     4   ar
    13    15    17    1
    14    15    16    2
    15    17    18    1
    16     7     5   ar
    17     4     5   ar
    18     5     6    1
    19    30    28    1
    20    18    19    1
    21    25    20    1
    22    25    26    1
    23    19    20   ar
    24    19    24   ar
    25    20    21   ar
    26    32    24    1
    27    32    33    1
    28    24    23   ar
    29    27    28    1
    30    27    26    1
    31    21    22   ar
    32    28    31    1
    33    28    29    1
    34    23    22   ar
    35    26    31    1
