@<TRIPOS>MOLECULE
L3024_0_out.pdbqt
 33 35 0 0 0
SMALL
GASTEIGER

@<TRIPOS>ATOM
      1 C27         5.7900  -20.6400   -9.0170 C.ar    1  MOL1       -0.0240
      2 C28         5.8980  -21.5260  -10.1050 C.ar    1  MOL1       -0.0570
      3 C29         4.8020  -22.3000  -10.4990 C.ar    1  MOL1       -0.0610
      4 C30         3.5880  -22.1980   -9.8130 C.ar    1  MOL1       -0.0480
      5 C31         3.4660  -21.3190   -8.7310 C.ar    1  MOL1        0.0180
      6 Br32        1.7990  -21.1640   -7.8060 Br      1  MOL1       -0.0510
      7 C33         4.5620  -20.5470   -8.3310 C.ar    1  MOL1       -0.0430
      8  C6         7.0010  -19.8610   -8.5510 C.3     1  MOL1        0.0630
      9  C5         7.0670  -18.5060   -9.2790 C.3     1  MOL1        0.0510
     10  C1         5.2050  -16.1710   -6.7780 C.3     1  MOL1        0.0060
     11  N2         5.5090  -17.2600   -7.6960 N.am    1  MOL1       -0.3590
     12  C3         6.7800  -17.3650   -8.3460 C.2     1  MOL1        0.2220
     13  O4         7.6720  -16.4980   -8.1350 O.2     1  MOL1       -0.2750
     14  N7         8.2250  -20.6340   -8.7880 N.am    1  MOL1       -0.3460
     15  C8         9.4890  -20.2590   -8.2380 C.2     1  MOL1        0.2580
     16  O9         9.5910  -19.2240   -7.5280 O.2     1  MOL1       -0.2710
     17 C10        10.7050  -21.1000   -8.4890 C.3     1  MOL1        0.1670
     18 O11        11.7600  -20.7280   -7.6060 O.3     1  MOL1       -0.4800
     19 C12        13.1010  -20.9860   -7.9030 C.ar    1  MOL1        0.1660
     20 C13        13.9780  -19.9450   -8.2860 C.ar    1  MOL1        0.0120
     21 C21        15.3360  -20.2370   -8.4990 C.ar    1  MOL1       -0.0540
     22 C22        15.8060  -21.5450   -8.3820 C.ar    1  MOL1       -0.0580
     23 C23        14.9290  -22.5780   -8.0530 C.ar    1  MOL1       -0.0160
     24 C24        13.5680  -22.3070   -7.8160 C.ar    1  MOL1        0.1610
     25 C14        13.4940  -18.5240   -8.4750 C.3     1  MOL1        0.0280
     26 N15        14.4760  -17.5680   -7.9250 N.3     1  MOL1       -0.2870
     27 C16        14.2040  -17.2650   -6.5100 C.3     1  MOL1        0.0640
     28 C17        13.8620  -15.8180   -6.8100 C.3     1  MOL1        0.2720
     29 F18        14.7660  -14.9130   -6.2810 F       1  MOL1       -0.2040
     30 F19        12.5370  -15.4960   -6.5650 F       1  MOL1       -0.2040
     31 C20        14.1390  -16.1730   -8.2580 C.3     1  MOL1        0.0640
     32 O25        12.6540  -23.3180   -7.4840 O.3     1  MOL1       -0.4930
     33 C26        12.9490  -24.4250   -6.6390 C.3     1  MOL1        0.0780
@<TRIPOS>BOND
     1     3     2   ar
     2     3     4   ar
     3     2     1   ar
     4     4     5   ar
     5     9     8    1
     6     9    12    1
     7     1     8    1
     8     1     7   ar
     9    14     8    1
    10    14    15   am
    11     5     7   ar
    12     5     6    1
    13    21    22   ar
    14    21    20   ar
    15    17    15    1
    16    17    18    1
    17    25    20    1
    18    25    26    1
    19    22    23   ar
    20    12    13    2
    21    12    11   am
    22    20    19   ar
    23    31    26    1
    24    31    28    1
    25    15    16    2
    26    23    24   ar
    27    26    27    1
    28    19    24   ar
    29    19    18    1
    30    24    32    1
    31    11    10    1
    32    32    33    1
    33    28    30    1
    34    28    27    1
    35    28    29    1
