@<TRIPOS>MOLECULE
L3024_0_out.pdbqt
 33 35 0 0 0
SMALL
GASTEIGER

@<TRIPOS>ATOM
      1 C27        13.6510  -19.6240   -7.9730 C.ar    1  MOL1       -0.0240
      2 C28        14.8330  -19.8500   -8.7000 C.ar    1  MOL1       -0.0570
      3 C29        15.4150  -21.1220   -8.7270 C.ar    1  MOL1       -0.0610
      4 C30        14.8240  -22.1790   -8.0280 C.ar    1  MOL1       -0.0480
      5 C31        13.6460  -21.9680   -7.3030 C.ar    1  MOL1        0.0180
      6 Br32       12.8260  -23.4200   -6.3650 Br      1  MOL1       -0.0510
      7 C33        13.0650  -20.6960   -7.2700 C.ar    1  MOL1       -0.0430
      8  C6        13.0680  -18.2300   -7.8890 C.3     1  MOL1        0.0630
      9  C5        12.5030  -17.8120   -9.2590 C.3     1  MOL1        0.0510
     10  C1         8.6920  -17.8160   -8.4520 C.3     1  MOL1        0.0060
     11  N2        10.1250  -17.5690   -8.3790 N.am    1  MOL1       -0.3590
     12  C3        11.0310  -18.0930   -9.3560 C.2     1  MOL1        0.2220
     13  O4        10.5960  -18.7940  -10.3100 O.2     1  MOL1       -0.2750
     14  N7        14.0890  -17.2780   -7.4400 N.am    1  MOL1       -0.3460
     15  C8        13.7770  -16.1340   -6.6430 C.2     1  MOL1        0.2580
     16  O9        12.5860  -15.9010   -6.3050 O.2     1  MOL1       -0.2710
     17 C10        14.8640  -15.2060   -6.1890 C.3     1  MOL1        0.1670
     18 O11        15.9510  -15.9440   -5.6350 O.3     1  MOL1       -0.4800
     19 C12        15.8690  -16.5560   -4.3810 C.ar    1  MOL1        0.1660
     20 C13        16.1260  -17.9370   -4.2230 C.ar    1  MOL1        0.0120
     21 C21        16.1100  -18.4930   -2.9330 C.ar    1  MOL1       -0.0540
     22 C22        15.7980  -17.7050   -1.8250 C.ar    1  MOL1       -0.0580
     23 C23        15.4960  -16.3530   -1.9900 C.ar    1  MOL1       -0.0160
     24 C24        15.5250  -15.7690   -3.2700 C.ar    1  MOL1        0.1610
     25 C14        16.4150  -18.8340   -5.4060 C.3     1  MOL1        0.0280
     26 N15        17.8150  -19.3040   -5.3670 N.3     1  MOL1       -0.2870
     27 C16        18.7330  -18.3220   -5.9690 C.3     1  MOL1        0.0640
     28 C17        19.0860  -19.2470   -7.1170 C.3     1  MOL1        0.2720
     29 F18        20.4020  -19.6760   -7.1010 F       1  MOL1       -0.2040
     30 F19        18.6600  -18.7890   -8.3530 F       1  MOL1       -0.2040
     31 C20        18.1230  -20.2260   -6.4730 C.3     1  MOL1        0.0640
     32 O25        15.2270  -14.4140   -3.4780 O.3     1  MOL1       -0.4930
     33 C26        13.9900  -13.8000   -3.1340 C.3     1  MOL1        0.0780
@<TRIPOS>BOND
     1    13    12    2
     2    12     9    1
     3    12    11   am
     4     9     8    1
     5     3     2   ar
     6     3     4   ar
     7     2     1   ar
     8    10    11    1
     9    30    28    1
    10     4     5   ar
    11     1     8    1
    12     1     7   ar
    13     8    14    1
    14    14    15   am
    15     5     7   ar
    16     5     6    1
    17    28    29    1
    18    28    31    1
    19    28    27    1
    20    15    16    2
    21    15    17    1
    22    31    26    1
    23    17    18    1
    24    27    26    1
    25    18    19    1
    26    25    26    1
    27    25    20    1
    28    19    20   ar
    29    19    24   ar
    30    20    21   ar
    31    32    24    1
    32    32    33    1
    33    24    23   ar
    34    21    22   ar
    35    23    22   ar
