@<TRIPOS>MOLECULE
L3024_0_out.pdbqt
 33 35 0 0 0
SMALL
GASTEIGER

@<TRIPOS>ATOM
      1 C27        15.6720  -18.4620   -0.5600 C.ar    1  MOL1       -0.0240
      2 C28        16.0960  -17.9210    0.6670 C.ar    1  MOL1       -0.0570
      3 C29        15.7710  -18.5570    1.8710 C.ar    1  MOL1       -0.0610
      4 C30        15.0220  -19.7360    1.8610 C.ar    1  MOL1       -0.0480
      5 C31        14.5970  -20.2870    0.6470 C.ar    1  MOL1        0.0180
      6 Br32       13.5900  -21.9140    0.6330 Br      1  MOL1       -0.0510
      7 C33        14.9150  -19.6510   -0.5580 C.ar    1  MOL1       -0.0430
      8  C6        15.9640  -17.7300   -1.8520 C.3     1  MOL1        0.0630
      9  C5        14.6930  -17.0230   -2.3570 C.3     1  MOL1        0.0510
     10  C1        14.1070  -13.2940   -3.3180 C.3     1  MOL1        0.0060
     11  N2        13.9310  -14.7310   -3.1650 N.am    1  MOL1       -0.3590
     12  C3        14.9090  -15.5450   -2.5080 C.2     1  MOL1        0.2220
     13  O4        15.9600  -15.0220   -2.0470 O.2     1  MOL1       -0.2750
     14  N7        16.4710  -18.6640   -2.8620 N.am    1  MOL1       -0.3460
     15  C8        17.3720  -18.2640   -3.8970 C.2     1  MOL1        0.2580
     16  O9        17.7560  -17.0670   -3.9770 O.2     1  MOL1       -0.2710
     17 C10        17.8810  -19.2660   -4.8890 C.3     1  MOL1        0.1670
     18 O11        17.3940  -18.9660   -6.1950 O.3     1  MOL1       -0.4800
     19 C12        16.3140  -19.6500   -6.7590 C.ar    1  MOL1        0.1660
     20 C13        15.0310  -19.0590   -6.8290 C.ar    1  MOL1        0.0120
     21 C21        13.9930  -19.7500   -7.4750 C.ar    1  MOL1       -0.0540
     22 C22        14.2090  -21.0250   -8.0000 C.ar    1  MOL1       -0.0580
     23 C23        15.4630  -21.6260   -7.8850 C.ar    1  MOL1       -0.0160
     24 C24        16.5240  -20.9450   -7.2600 C.ar    1  MOL1        0.1610
     25 C14        14.7450  -17.7020   -6.2250 C.3     1  MOL1        0.0280
     26 N15        15.2560  -16.6290   -7.1020 N.3     1  MOL1       -0.2870
     27 C16        15.4720  -15.3770   -6.3570 C.3     1  MOL1        0.0640
     28 C17        14.3780  -14.6520   -7.1140 C.3     1  MOL1        0.2720
     29 F18        14.8460  -13.6300   -7.9230 F       1  MOL1       -0.2040
     30 F19        13.2980  -14.2930   -6.3250 F       1  MOL1       -0.2040
     31 C20        14.1770  -15.9620   -7.8500 C.3     1  MOL1        0.0640
     32 O25        17.7980  -21.5150   -7.1240 O.3     1  MOL1       -0.4930
     33 C26        18.1600  -22.8030   -7.6090 C.3     1  MOL1        0.0780
@<TRIPOS>BOND
     1    22    23   ar
     2    22    21   ar
     3    29    28    1
     4    23    24   ar
     5    31    28    1
     6    31    26    1
     7    33    32    1
     8    21    20   ar
     9    24    32    1
    10    24    19   ar
    11    28    27    1
    12    28    30    1
    13    26    27    1
    14    26    25    1
    15    20    19   ar
    16    20    25    1
    17    19    18    1
    18    18    17    1
    19    17    15    1
    20    16    15    2
    21    15    14   am
    22    10    11    1
    23    11    12   am
    24    14     8    1
    25    12     9    1
    26    12    13    2
    27     9     8    1
    28     8     1    1
    29     1     7   ar
    30     1     2   ar
    31     7     5   ar
    32     6     5    1
    33     5     4   ar
    34     2     3   ar
    35     4     3   ar
