@<TRIPOS>MOLECULE
L3024_0_out.pdbqt
 33 35 0 0 0
SMALL
GASTEIGER

@<TRIPOS>ATOM
      1 C27         7.6780  -17.7580   -9.1410 C.ar    1  MOL1       -0.0240
      2 C28         6.9570  -17.5710   -7.9480 C.ar    1  MOL1       -0.0570
      3 C29         5.8980  -16.6580   -7.8970 C.ar    1  MOL1       -0.0610
      4 C30         5.5490  -15.9250   -9.0350 C.ar    1  MOL1       -0.0480
      5 C31         6.2560  -16.1040  -10.2290 C.ar    1  MOL1        0.0180
      6 Br32        5.7640  -15.1160  -11.7910 Br      1  MOL1       -0.0510
      7 C33         7.3190  -17.0110  -10.2820 C.ar    1  MOL1       -0.0430
      8  C6         8.8680  -18.6930   -9.1680 C.3     1  MOL1        0.0630
      9  C5         8.4990  -20.0350   -8.5110 C.3     1  MOL1        0.0510
     10  C1         6.9350  -21.9750  -11.5050 C.3     1  MOL1        0.0060
     11  N2         7.1920  -20.9630  -10.4910 N.am    1  MOL1       -0.3590
     12  C3         8.2530  -21.1010   -9.5390 C.2     1  MOL1        0.2220
     13  O4         8.9930  -22.1230   -9.5610 O.2     1  MOL1       -0.2750
     14  N7        10.0110  -18.0800   -8.4820 N.am    1  MOL1       -0.3460
     15  C8        11.3450  -18.1560   -8.9910 C.2     1  MOL1        0.2580
     16  O9        11.5810  -18.7760  -10.0620 O.2     1  MOL1       -0.2710
     17 C10        12.4730  -17.4890   -8.2640 C.3     1  MOL1        0.1670
     18 O11        13.6260  -18.3280   -8.2550 O.3     1  MOL1       -0.4800
     19 C12        14.1210  -18.8960   -7.0780 C.ar    1  MOL1        0.1660
     20 C13        14.8970  -18.1390   -6.1710 C.ar    1  MOL1        0.0120
     21 C21        15.3060  -18.7280   -4.9630 C.ar    1  MOL1       -0.0540
     22 C22        14.9940  -20.0570   -4.6810 C.ar    1  MOL1       -0.0580
     23 C23        14.2710  -20.8180   -5.6000 C.ar    1  MOL1       -0.0160
     24 C24        13.8320  -20.2440   -6.8080 C.ar    1  MOL1        0.1610
     25 C14        15.3010  -16.7120   -6.4660 C.3     1  MOL1        0.0280
     26 N15        16.6680  -16.6670   -7.0240 N.3     1  MOL1       -0.2870
     27 C16        16.6880  -16.0450   -8.3590 C.3     1  MOL1        0.0640
     28 C17        17.1000  -17.3370   -9.0350 C.3     1  MOL1        0.2720
     29 F18        18.3720  -17.2980   -9.5800 F       1  MOL1       -0.2040
     30 F19        16.1390  -17.8500   -9.8910 F       1  MOL1       -0.2040
     31 C20        17.0550  -17.9440   -7.6460 C.3     1  MOL1        0.0640
     32 O25        13.1040  -20.9740   -7.7590 O.3     1  MOL1       -0.4930
     33 C26        11.7810  -21.4600   -7.5610 C.3     1  MOL1        0.0780
@<TRIPOS>BOND
     1     6     5    1
     2    10    11    1
     3    11    12   am
     4     7     5   ar
     5     7     1   ar
     6     5     4   ar
     7    16    15    2
     8    30    28    1
     9    29    28    1
    10    13    12    2
    11    12     9    1
    12     8     1    1
    13     8     9    1
    14     8    14    1
    15     1     2   ar
    16     4     3   ar
    17    28    27    1
    18    28    31    1
    19    15    14   am
    20    15    17    1
    21    27    26    1
    22    17    18    1
    23    18    19    1
    24     2     3   ar
    25    32    33    1
    26    32    24    1
    27    31    26    1
    28    19    24   ar
    29    19    20   ar
    30    26    25    1
    31    24    23   ar
    32    25    20    1
    33    20    21   ar
    34    23    22   ar
    35    21    22   ar
