@<TRIPOS>MOLECULE
L3024_0_out.pdbqt
 33 35 0 0 0
SMALL
GASTEIGER

@<TRIPOS>ATOM
      1 C27         3.7620  -14.4570   -9.8930 C.ar    1  MOL1       -0.0240
      2 C28         2.4000  -14.2080  -10.1390 C.ar    1  MOL1       -0.0570
      3 C29         1.4460  -14.4470   -9.1440 C.ar    1  MOL1       -0.0610
      4 C30         1.8410  -14.9370   -7.8960 C.ar    1  MOL1       -0.0480
      5 C31         3.1940  -15.1860   -7.6370 C.ar    1  MOL1        0.0180
      6 Br32        3.7370  -15.8350   -5.9220 Br      1  MOL1       -0.0510
      7 C33         4.1500  -14.9530   -8.6310 C.ar    1  MOL1       -0.0430
      8  C6         4.7790  -14.2650  -10.9980 C.3     1  MOL1        0.0630
      9  C5         4.1330  -14.5560  -12.3640 C.3     1  MOL1        0.0510
     10  C1         3.2300  -11.0280  -13.7470 C.3     1  MOL1        0.0060
     11  N2         3.2610  -12.2300  -12.9260 N.am    1  MOL1       -0.3590
     12  C3         4.1170  -13.3340  -13.2370 C.2     1  MOL1        0.2220
     13  O4         4.8680  -13.2870  -14.2500 O.2     1  MOL1       -0.2750
     14  N7         5.9390  -15.1350  -10.7780 N.am    1  MOL1       -0.3460
     15  C8         6.3310  -16.1440  -11.7120 C.2     1  MOL1        0.2580
     16  O9         5.6690  -16.3230  -12.7680 O.2     1  MOL1       -0.2710
     17 C10         7.5410  -16.9890  -11.4500 C.3     1  MOL1        0.1670
     18 O11         7.1570  -18.2760  -10.9740 O.3     1  MOL1       -0.4800
     19 C12         7.9760  -19.0270  -10.1260 C.ar    1  MOL1        0.1660
     20 C13         7.4680  -19.5970   -8.9360 C.ar    1  MOL1        0.0120
     21 C21         8.3050  -20.4100   -8.1540 C.ar    1  MOL1       -0.0540
     22 C22         9.6360  -20.6150   -8.5190 C.ar    1  MOL1       -0.0580
     23 C23        10.1490  -20.0100   -9.6670 C.ar    1  MOL1       -0.0160
     24 C24         9.3240  -19.2080  -10.4770 C.ar    1  MOL1        0.1610
     25 C14         6.0460  -19.3540   -8.4790 C.3     1  MOL1        0.0280
     26 N15         5.5520  -20.5060   -7.6980 N.3     1  MOL1       -0.2870
     27 C16         4.9690  -21.5410   -8.5680 C.3     1  MOL1        0.0640
     28 C17         3.5760  -21.3310   -8.0090 C.3     1  MOL1        0.2720
     29 F18         3.0950  -22.4130   -7.2930 F       1  MOL1       -0.2040
     30 F19         2.6750  -20.8240   -8.9320 F       1  MOL1       -0.2040
     31 C20         4.2100  -20.2640   -7.1390 C.3     1  MOL1        0.0640
     32 O25         9.8000  -18.5820  -11.6370 O.3     1  MOL1       -0.4930
     33 C26        11.0240  -18.9120  -12.2860 C.3     1  MOL1        0.0780
@<TRIPOS>BOND
     1    13    12    2
     2    10    11    1
     3    12    11   am
     4    12     9    1
     5    16    15    2
     6     9     8    1
     7    33    32    1
     8    15    17    1
     9    15    14   am
    10    32    24    1
    11    17    18    1
    12     8    14    1
    13     8     1    1
    14    18    19    1
    15    24    19   ar
    16    24    23   ar
    17     2     1   ar
    18     2     3   ar
    19    19    20   ar
    20     1     7   ar
    21    23    22   ar
    22     3     4   ar
    23    20    25    1
    24    20    21   ar
    25    30    28    1
    26     7     5   ar
    27    27    28    1
    28    27    26    1
    29    22    21   ar
    30    25    26    1
    31    28    29    1
    32    28    31    1
    33     4     5   ar
    34    26    31    1
    35     5     6    1
