@<TRIPOS>MOLECULE
L3024_0_out.pdbqt
 33 35 0 0 0
SMALL
GASTEIGER

@<TRIPOS>ATOM
      1 C27         8.5050  -18.1430  -10.4190 C.ar    1  MOL1       -0.0240
      2 C28         8.5940  -18.5180  -11.7720 C.ar    1  MOL1       -0.0570
      3 C29         7.7990  -17.8860  -12.7340 C.ar    1  MOL1       -0.0610
      4 C30         6.9100  -16.8770  -12.3570 C.ar    1  MOL1       -0.0480
      5 C31         6.8140  -16.4920  -11.0150 C.ar    1  MOL1        0.0180
      6 Br32        5.6120  -15.0950  -10.5020 Br      1  MOL1       -0.0510
      7 C33         7.6030  -17.1250  -10.0490 C.ar    1  MOL1       -0.0430
      8  C6         9.3150  -18.8800   -9.3740 C.3     1  MOL1        0.0630
      9  C5         8.3800  -19.4760   -8.3060 C.3     1  MOL1        0.0510
     10  C1         7.8460  -23.0230   -9.8240 C.3     1  MOL1        0.0060
     11  N2         8.4720  -21.7990   -9.3470 N.am    1  MOL1       -0.3590
     12  C3         7.7030  -20.7220   -8.7990 C.2     1  MOL1        0.2220
     13  O4         6.4480  -20.8150   -8.7250 O.2     1  MOL1       -0.2750
     14  N7        10.2930  -17.9770   -8.7590 N.am    1  MOL1       -0.3460
     15  C8        11.6960  -18.0700   -9.0190 C.2     1  MOL1        0.2580
     16  O9        12.1410  -18.9570   -9.7940 O.2     1  MOL1       -0.2710
     17 C10        12.6500  -17.1040   -8.3830 C.3     1  MOL1        0.1670
     18 O11        13.9960  -17.5350   -8.5710 O.3     1  MOL1       -0.4800
     19 C12        14.8500  -17.7880   -7.4950 C.ar    1  MOL1        0.1660
     20 C13        15.0980  -19.1070   -7.0520 C.ar    1  MOL1        0.0120
     21 C21        16.0260  -19.3200   -6.0180 C.ar    1  MOL1       -0.0540
     22 C22        16.6590  -18.2410   -5.4020 C.ar    1  MOL1       -0.0580
     23 C23        16.3750  -16.9370   -5.8070 C.ar    1  MOL1       -0.0160
     24 C24        15.4650  -16.7000   -6.8530 C.ar    1  MOL1        0.1610
     25 C14        14.3910  -20.2980   -7.6600 C.3     1  MOL1        0.0280
     26 N15        13.6450  -21.0390   -6.6220 N.3     1  MOL1       -0.2870
     27 C16        14.2080  -22.3830   -6.4070 C.3     1  MOL1        0.0640
     28 C17        12.9650  -23.0690   -6.9390 C.3     1  MOL1        0.2720
     29 F18        12.2700  -23.7840   -5.9780 F       1  MOL1       -0.2040
     30 F19        13.1740  -23.7680   -8.1160 F       1  MOL1       -0.2040
     31 C20        12.4250  -21.6690   -7.1580 C.3     1  MOL1        0.0640
     32 O25        15.1510  -15.4040   -7.2900 O.3     1  MOL1       -0.4930
     33 C26        16.0610  -14.5370   -7.9590 C.3     1  MOL1        0.0780
@<TRIPOS>BOND
     1     3     4   ar
     2     3     2   ar
     3     4     5   ar
     4     2     1   ar
     5     5     6    1
     6     5     7   ar
     7     1     7   ar
     8     1     8    1
     9    10    11    1
    10    16    15    2
    11     8    14    1
    12     8     9    1
    13    11    12   am
    14    15    14   am
    15    15    17    1
    16    12    13    2
    17    12     9    1
    18    18    17    1
    19    18    19    1
    20    30    28    1
    21    33    32    1
    22    25    20    1
    23    25    26    1
    24    19    20   ar
    25    19    24   ar
    26    32    24    1
    27    31    28    1
    28    31    26    1
    29    20    21   ar
    30    28    27    1
    31    28    29    1
    32    24    23   ar
    33    26    27    1
    34    21    22   ar
    35    23    22   ar
