@<TRIPOS>MOLECULE
L3024_0_out.pdbqt
 33 35 0 0 0
SMALL
GASTEIGER

@<TRIPOS>ATOM
      1 C27         5.9350  -20.6380   -8.5030 C.ar    1  MOL1       -0.0240
      2 C28         5.5800  -20.7100   -7.1440 C.ar    1  MOL1       -0.0570
      3 C29         4.3960  -21.3470   -6.7550 C.ar    1  MOL1       -0.0610
      4 C30         3.5570  -21.9150   -7.7170 C.ar    1  MOL1       -0.0480
      5 C31         3.9000  -21.8530   -9.0720 C.ar    1  MOL1        0.0180
      6 Br32        2.7620  -22.6510  -10.3860 Br      1  MOL1       -0.0510
      7 C33         5.0800  -21.2130   -9.4650 C.ar    1  MOL1       -0.0430
      8  C6         7.1800  -19.8850   -8.9210 C.3     1  MOL1        0.0630
      9  C5         7.2970  -19.8710  -10.4560 C.3     1  MOL1        0.0510
     10  C1         6.9630  -15.9940  -10.6400 C.3     1  MOL1        0.0060
     11  N2         6.9600  -17.3650  -10.1500 N.am    1  MOL1       -0.3590
     12  C3         7.2990  -18.4700  -10.9950 C.2     1  MOL1        0.2220
     13  O4         7.6060  -18.2710  -12.2020 O.2     1  MOL1       -0.2750
     14  N7         8.3700  -20.4960   -8.3190 N.am    1  MOL1       -0.3460
     15  C8         9.5010  -19.7280   -7.9030 C.2     1  MOL1        0.2580
     16  O9         9.5110  -18.4780   -8.0550 O.2     1  MOL1       -0.2710
     17 C10        10.6810  -20.4000   -7.2680 C.3     1  MOL1        0.1670
     18 O11        11.6590  -20.7270   -8.2530 O.3     1  MOL1       -0.4800
     19 C12        12.9730  -21.0600   -7.9120 C.ar    1  MOL1        0.1660
     20 C13        13.9850  -20.0750   -7.8550 C.ar    1  MOL1        0.0120
     21 C21        15.2740  -20.4400   -7.4310 C.ar    1  MOL1       -0.0540
     22 C22        15.5650  -21.7670   -7.1150 C.ar    1  MOL1       -0.0580
     23 C23        14.5780  -22.7470   -7.2210 C.ar    1  MOL1       -0.0160
     24 C24        13.2740  -22.4010   -7.6240 C.ar    1  MOL1        0.1610
     25 C14        13.7200  -18.6360   -8.2400 C.3     1  MOL1        0.0280
     26 N15        13.2290  -17.8720   -7.0750 N.3     1  MOL1       -0.2870
     27 C16        12.4470  -16.6950   -7.4900 C.3     1  MOL1        0.0640
     28 C17        13.4720  -15.7270   -6.9340 C.3     1  MOL1        0.2720
     29 F18        13.0140  -14.9910   -5.8550 F       1  MOL1       -0.2040
     30 F19        14.1030  -14.9660   -7.9050 F       1  MOL1       -0.2040
     31 C20        14.2540  -16.9630   -6.5350 C.3     1  MOL1        0.0640
     32 O25        12.2530  -23.3550   -7.7430 O.3     1  MOL1       -0.4930
     33 C26        12.4720  -24.7500   -7.9260 C.3     1  MOL1        0.0780
@<TRIPOS>BOND
     1    13    12    2
     2    12     9    1
     3    12    11   am
     4    10    11    1
     5     9     8    1
     6     6     5    1
     7     7     5   ar
     8     7     1   ar
     9     5     4   ar
    10     8     1    1
    11     8    14    1
    12     1     2   ar
    13    14    15   am
    14    18    19    1
    15    18    17    1
    16    25    20    1
    17    25    26    1
    18    16    15    2
    19    33    32    1
    20    19    20   ar
    21    19    24   ar
    22    30    28    1
    23    15    17    1
    24    20    21   ar
    25    32    24    1
    26     4     3   ar
    27    24    23   ar
    28    27    26    1
    29    27    28    1
    30    21    22   ar
    31    23    22   ar
    32     2     3   ar
    33    26    31    1
    34    28    31    1
    35    28    29    1
