@<TRIPOS>MOLECULE
L3024_0_out.pdbqt
 33 35 0 0 0
SMALL
GASTEIGER

@<TRIPOS>ATOM
      1 C27        14.4850  -17.3980   -7.3640 C.ar    1  MOL1       -0.0240
      2 C28        14.3220  -16.3370   -8.2740 C.ar    1  MOL1       -0.0570
      3 C29        14.2210  -15.0200   -7.8140 C.ar    1  MOL1       -0.0610
      4 C30        14.2820  -14.7490   -6.4450 C.ar    1  MOL1       -0.0480
      5 C31        14.4470  -15.7940   -5.5290 C.ar    1  MOL1        0.0180
      6 Br32       14.5520  -15.4190   -3.6560 Br      1  MOL1       -0.0510
      7 C33        14.5430  -17.1130   -5.9850 C.ar    1  MOL1       -0.0430
      8  C6        14.5200  -18.8260   -7.8640 C.3     1  MOL1        0.0630
      9  C5        15.3580  -18.9130   -9.1530 C.3     1  MOL1        0.0510
     10  C1        18.2330  -20.8400   -7.3660 C.3     1  MOL1        0.0060
     11  N2        16.9720  -20.1620   -7.6290 N.am    1  MOL1       -0.3590
     12  C3        16.6720  -19.5970   -8.9100 C.2     1  MOL1        0.2220
     13  O4        17.5130  -19.6720   -9.8470 O.2     1  MOL1       -0.2750
     14  N7        13.1580  -19.3150   -8.1000 N.am    1  MOL1       -0.3460
     15  C8        12.5930  -20.4030   -7.3650 C.2     1  MOL1        0.2580
     16  O9        13.2700  -20.9910   -6.4800 O.2     1  MOL1       -0.2710
     17 C10        11.1850  -20.8460   -7.6280 C.3     1  MOL1        0.1670
     18 O11        11.0340  -21.2450   -8.9890 O.3     1  MOL1       -0.4800
     19 C12         9.7950  -21.6130   -9.5200 C.ar    1  MOL1        0.1660
     20 C13         8.9260  -20.6500  -10.0840 C.ar    1  MOL1        0.0120
     21 C21         7.7260  -21.0740  -10.6780 C.ar    1  MOL1       -0.0540
     22 C22         7.3700  -22.4230  -10.6700 C.ar    1  MOL1       -0.0580
     23 C23         8.2050  -23.3650  -10.0680 C.ar    1  MOL1       -0.0160
     24 C24         9.4220  -22.9660   -9.4850 C.ar    1  MOL1        0.1610
     25 C14         9.2540  -19.1730  -10.0640 C.3     1  MOL1        0.0280
     26 N15         8.8350  -18.5700   -8.7820 N.3     1  MOL1       -0.2870
     27 C16         7.5050  -17.9460   -8.8860 C.3     1  MOL1        0.0640
     28 C17         8.0610  -16.5520   -8.6710 C.3     1  MOL1        0.2720
     29 F18         7.6580  -15.9700   -7.4820 F       1  MOL1       -0.2040
     30 F19         7.9310  -15.7240   -9.7740 F       1  MOL1       -0.2040
     31 C20         9.4150  -17.2300   -8.5830 C.3     1  MOL1        0.0640
     32 O25        10.2880  -23.8810   -8.8700 O.3     1  MOL1       -0.4930
     33 C26        10.3390  -25.2710   -9.1730 C.3     1  MOL1        0.0780
@<TRIPOS>BOND
     1    21    22   ar
     2    21    20   ar
     3    22    23   ar
     4    20    25    1
     5    20    19   ar
     6    23    24   ar
     7    25    26    1
     8    13    12    2
     9    30    28    1
    10    19    24   ar
    11    19    18    1
    12    24    32    1
    13    33    32    1
    14     9    12    1
    15     9     8    1
    16    18    17    1
    17    12    11   am
    18    27    26    1
    19    27    28    1
    20    26    31    1
    21    28    31    1
    22    28    29    1
    23     2     3   ar
    24     2     1   ar
    25    14     8    1
    26    14    15   am
    27     8     1    1
    28     3     4   ar
    29    11    10    1
    30    17    15    1
    31    15    16    2
    32     1     7   ar
    33     4     5   ar
    34     7     5   ar
    35     5     6    1
