@<TRIPOS>MOLECULE
L3024_0_out.pdbqt
 33 35 0 0 0
SMALL
GASTEIGER

@<TRIPOS>ATOM
      1 C27         7.4720  -18.4330   -9.8790 C.ar    1  MOL1       -0.0240
      2 C28         7.5290  -17.5320  -10.9580 C.ar    1  MOL1       -0.0570
      3 C29         6.8810  -16.2940  -10.8810 C.ar    1  MOL1       -0.0610
      4 C30         6.1700  -15.9450   -9.7300 C.ar    1  MOL1       -0.0480
      5 C31         6.1080  -16.8310   -8.6480 C.ar    1  MOL1        0.0180
      6 Br32        5.1530  -16.3430   -7.0640 Br      1  MOL1       -0.0510
      7 C33         6.7510  -18.0710   -8.7230 C.ar    1  MOL1       -0.0430
      8  C6         8.1150  -19.7980   -9.9980 C.3     1  MOL1        0.0630
      9  C5         7.5040  -20.7600   -8.9630 C.3     1  MOL1        0.0510
     10  C1         3.9230  -22.0240   -9.8330 C.3     1  MOL1        0.0060
     11  N2         5.0250  -21.2600   -9.2650 N.am    1  MOL1       -0.3590
     12  C3         6.3910  -21.5730   -9.5570 C.2     1  MOL1        0.2220
     13  O4         6.6680  -22.5370  -10.3220 O.2     1  MOL1       -0.2750
     14  N7         9.5660  -19.6940   -9.8130 N.am    1  MOL1       -0.3460
     15  C8        10.1770  -19.6630   -8.5210 C.2     1  MOL1        0.2580
     16  O9         9.4670  -19.7150   -7.4820 O.2     1  MOL1       -0.2710
     17 C10        11.6680  -19.5830   -8.3890 C.3     1  MOL1        0.1670
     18 O11        12.0520  -19.6550   -7.0180 O.3     1  MOL1       -0.4800
     19 C12        13.3490  -19.9990   -6.6280 C.ar    1  MOL1        0.1660
     20 C13        14.3530  -19.0150   -6.4810 C.ar    1  MOL1        0.0120
     21 C21        15.6220  -19.3960   -6.0110 C.ar    1  MOL1       -0.0540
     22 C22        15.9040  -20.7340   -5.7390 C.ar    1  MOL1       -0.0580
     23 C23        14.9270  -21.7100   -5.9340 C.ar    1  MOL1       -0.0160
     24 C24        13.6430  -21.3510   -6.3840 C.ar    1  MOL1        0.1610
     25 C14        14.1000  -17.5620   -6.8160 C.3     1  MOL1        0.0280
     26 N15        15.3750  -16.8180   -6.8810 N.3     1  MOL1       -0.2870
     27 C16        15.2210  -15.4370   -6.3920 C.3     1  MOL1        0.0640
     28 C17        15.5000  -14.8450   -7.7600 C.3     1  MOL1        0.2720
     29 F18        16.6820  -14.1280   -7.8240 F       1  MOL1       -0.2040
     30 F19        14.4140  -14.1870   -8.3140 F       1  MOL1       -0.2040
     31 C20        15.6370  -16.2810   -8.2270 C.3     1  MOL1        0.0640
     32 O25        12.6330  -22.3010   -6.5930 O.3     1  MOL1       -0.4930
     33 C26        12.4430  -23.0220   -7.8070 C.3     1  MOL1        0.0780
@<TRIPOS>BOND
     1     2     3   ar
     2     2     1   ar
     3     3     4   ar
     4    13    12    2
     5     8     1    1
     6     8    14    1
     7     8     9    1
     8     1     7   ar
     9    10    11    1
    10    14    15   am
    11     4     5   ar
    12    12    11   am
    13    12     9    1
    14     7     5   ar
    15     5     6    1
    16    15    17    1
    17    15    16    2
    18    17    18    1
    19    30    28    1
    20    31    28    1
    21    31    26    1
    22    29    28    1
    23    33    32    1
    24    28    27    1
    25    18    19    1
    26    26    25    1
    27    26    27    1
    28    25    20    1
    29    19    20   ar
    30    19    24   ar
    31    32    24    1
    32    20    21   ar
    33    24    23   ar
    34    21    22   ar
    35    23    22   ar
