@<TRIPOS>MOLECULE
L3024_0_out.pdbqt
 33 35 0 0 0
SMALL
GASTEIGER

@<TRIPOS>ATOM
      1 C27        10.8860  -18.7180   -8.4740 C.ar    1  MOL1       -0.0240
      2 C28        10.2870  -19.8870   -7.9700 C.ar    1  MOL1       -0.0570
      3 C29         8.9010  -20.0590   -8.0420 C.ar    1  MOL1       -0.0610
      4 C30         8.1000  -19.0680   -8.6160 C.ar    1  MOL1       -0.0480
      5 C31         8.6830  -17.9020   -9.1240 C.ar    1  MOL1        0.0180
      6 Br32        7.5880  -16.5550   -9.9290 Br      1  MOL1       -0.0510
      7 C33        10.0680  -17.7240   -9.0490 C.ar    1  MOL1       -0.0430
      8  C6        12.3780  -18.5070   -8.3280 C.3     1  MOL1        0.0630
      9  C5        13.0990  -19.8660   -8.2770 C.3     1  MOL1        0.0510
     10  C1        16.9680  -20.3220   -8.3240 C.3     1  MOL1        0.0060
     11  N2        15.5640  -20.4170   -7.9480 N.am    1  MOL1       -0.3590
     12  C3        14.5390  -19.7400   -8.6830 C.2     1  MOL1        0.2220
     13  O4        14.8400  -19.0330   -9.6840 O.2     1  MOL1       -0.2750
     14  N7        12.6640  -17.7240   -7.1210 N.am    1  MOL1       -0.3460
     15  C8        13.3680  -16.4810   -7.1590 C.2     1  MOL1        0.2580
     16  O9        13.7810  -16.0190   -8.2560 O.2     1  MOL1       -0.2710
     17 C10        13.6120  -15.7080   -5.8980 C.3     1  MOL1        0.1670
     18 O11        14.7830  -14.9060   -6.0230 O.3     1  MOL1       -0.4800
     19 C12        16.0140  -15.3040   -5.4940 C.ar    1  MOL1        0.1660
     20 C13        16.2550  -15.2760   -4.1010 C.ar    1  MOL1        0.0120
     21 C21        17.4780  -15.7590   -3.6070 C.ar    1  MOL1       -0.0540
     22 C22        18.4630  -16.2170   -4.4810 C.ar    1  MOL1       -0.0580
     23 C23        18.2430  -16.1970   -5.8590 C.ar    1  MOL1       -0.0160
     24 C24        17.0180  -15.7360   -6.3760 C.ar    1  MOL1        0.1610
     25 C14        15.2310  -14.7370   -3.1260 C.3     1  MOL1        0.0280
     26 N15        14.3600  -15.8260   -2.6390 N.3     1  MOL1       -0.2870
     27 C16        14.3710  -15.9130   -1.1690 C.3     1  MOL1        0.0640
     28 C17        15.0460  -17.2700   -1.1810 C.3     1  MOL1        0.2720
     29 F18        14.2450  -18.2940   -0.7070 F       1  MOL1       -0.2040
     30 F19        16.3230  -17.2620   -0.6440 F       1  MOL1       -0.2040
     31 C20        15.0280  -17.1380   -2.6910 C.3     1  MOL1        0.0640
     32 O25        16.7570  -15.6980   -7.7530 O.3     1  MOL1       -0.4930
     33 C26        17.2560  -16.6440   -8.6930 C.3     1  MOL1        0.0780
@<TRIPOS>BOND
     1     6     5    1
     2    13    12    2
     3     5     7   ar
     4     5     4   ar
     5     7     1   ar
     6    33    32    1
     7    12     9    1
     8    12    11   am
     9     4     3   ar
    10     1     8    1
    11     1     2   ar
    12     8     9    1
    13     8    14    1
    14    10    11    1
    15    16    15    2
    16     3     2   ar
    17    32    24    1
    18    15    14   am
    19    15    17    1
    20    24    23   ar
    21    24    19   ar
    22    18    17    1
    23    18    19    1
    24    23    22   ar
    25    19    20   ar
    26    22    21   ar
    27    20    21   ar
    28    20    25    1
    29    25    26    1
    30    31    26    1
    31    31    28    1
    32    26    27    1
    33    28    27    1
    34    28    29    1
    35    28    30    1
