@<TRIPOS>MOLECULE
L3024_0_out.pdbqt
 33 35 0 0 0
SMALL
GASTEIGER

@<TRIPOS>ATOM
      1 C27         9.5860  -18.1880   -9.1340 C.ar    1  MOL1       -0.0240
      2 C28         9.2360  -17.1810   -8.2160 C.ar    1  MOL1       -0.0570
      3 C29         8.2540  -16.2380   -8.5410 C.ar    1  MOL1       -0.0610
      4 C30         7.6140  -16.2910   -9.7820 C.ar    1  MOL1       -0.0480
      5 C31         7.9500  -17.2900  -10.7020 C.ar    1  MOL1        0.0180
      6 Br32        7.0580  -17.3750  -12.3920 Br      1  MOL1       -0.0510
      7 C33         8.9350  -18.2300  -10.3840 C.ar    1  MOL1       -0.0430
      8  C6        10.7000  -19.1580   -8.8050 C.3     1  MOL1        0.0630
      9  C5        10.1580  -20.3050   -7.9320 C.3     1  MOL1        0.0510
     10  C1         9.3420  -23.2450  -10.3540 C.3     1  MOL1        0.0060
     11  N2        10.0650  -22.2620   -9.5600 N.am    1  MOL1       -0.3590
     12  C3         9.3840  -21.3000   -8.7490 C.2     1  MOL1        0.2220
     13  O4         8.1230  -21.2820   -8.7120 O.2     1  MOL1       -0.2750
     14  N7        11.7950  -18.4630   -8.1210 N.am    1  MOL1       -0.3460
     15  C8        13.0740  -18.2610   -8.7250 C.2     1  MOL1        0.2580
     16  O9        13.3040  -18.6950   -9.8850 O.2     1  MOL1       -0.2710
     17 C10        14.1510  -17.5200   -7.9920 C.3     1  MOL1        0.1670
     18 O11        14.2860  -18.0200   -6.6640 O.3     1  MOL1       -0.4800
     19 C12        15.5350  -18.2460   -6.0800 C.ar    1  MOL1        0.1660
     20 C13        16.1920  -19.4900   -6.2180 C.ar    1  MOL1        0.0120
     21 C21        17.4810  -19.6470   -5.6820 C.ar    1  MOL1       -0.0540
     22 C22        18.0880  -18.6060   -4.9790 C.ar    1  MOL1       -0.0580
     23 C23        17.4160  -17.3970   -4.8000 C.ar    1  MOL1       -0.0160
     24 C24        16.1330  -17.2090   -5.3450 C.ar    1  MOL1        0.1610
     25 C14        15.5450  -20.6590   -6.9280 C.3     1  MOL1        0.0280
     26 N15        14.8050  -21.5010   -5.9650 N.3     1  MOL1       -0.2870
     27 C16        14.6870  -22.8900   -6.4400 C.3     1  MOL1        0.0640
     28 C17        13.1820  -22.7880   -6.5900 C.3     1  MOL1        0.2720
     29 F18        12.4800  -23.5890   -5.7060 F       1  MOL1       -0.2040
     30 F19        12.7450  -22.8820   -7.9010 F       1  MOL1       -0.2040
     31 C20        13.3460  -21.3590   -6.1110 C.3     1  MOL1        0.0640
     32 O25        15.4240  -16.0090   -5.1870 O.3     1  MOL1       -0.4930
     33 C26        14.6540  -15.6730   -4.0380 C.3     1  MOL1        0.0780
@<TRIPOS>BOND
     1     6     5    1
     2     5     7   ar
     3     5     4   ar
     4     7     1   ar
     5    10    11    1
     6    16    15    2
     7     4     3   ar
     8    11    12   am
     9     1     8    1
    10     1     2   ar
    11     8    14    1
    12     8     9    1
    13    12    13    2
    14    12     9    1
    15    15    14   am
    16    15    17    1
    17     3     2   ar
    18    17    18    1
    19    30    28    1
    20    25    20    1
    21    25    26    1
    22    18    19    1
    23    28    27    1
    24    28    31    1
    25    28    29    1
    26    27    26    1
    27    20    19   ar
    28    20    21   ar
    29    31    26    1
    30    19    24   ar
    31    21    22   ar
    32    24    32    1
    33    24    23   ar
    34    32    33    1
    35    22    23   ar
