@<TRIPOS>MOLECULE
L3024_0_out.pdbqt
 33 35 0 0 0
SMALL
GASTEIGER

@<TRIPOS>ATOM
      1 C27         6.1630  -16.0990   -9.8230 C.ar    1  MOL1       -0.0240
      2 C28         6.5030  -15.5420  -11.0690 C.ar    1  MOL1       -0.0570
      3 C29         5.6350  -14.6490  -11.7060 C.ar    1  MOL1       -0.0610
      4 C30         4.4210  -14.3030  -11.1060 C.ar    1  MOL1       -0.0480
      5 C31         4.0720  -14.8480   -9.8650 C.ar    1  MOL1        0.0180
      6 Br32        2.4190  -14.3570   -9.0350 Br      1  MOL1       -0.0510
      7 C33         4.9350  -15.7450   -9.2290 C.ar    1  MOL1       -0.0430
      8  C6         7.0730  -17.1200   -9.1760 C.3     1  MOL1        0.0630
      9  C5         6.2730  -17.9920   -8.1920 C.3     1  MOL1        0.0510
     10  C1         5.6910  -21.8430   -8.1430 C.3     1  MOL1        0.0060
     11  N2         5.7350  -20.4420   -7.7510 N.am    1  MOL1       -0.3590
     12  C3         6.2520  -19.4300   -8.6220 C.2     1  MOL1        0.2220
     13  O4         6.6910  -19.7420   -9.7620 O.2     1  MOL1       -0.2750
     14  N7         8.1820  -16.4490   -8.4880 N.am    1  MOL1       -0.3460
     15  C8         9.4330  -17.0920   -8.2360 C.2     1  MOL1        0.2580
     16  O9         9.6180  -18.2840   -8.5980 O.2     1  MOL1       -0.2710
     17 C10        10.5420  -16.3510   -7.5520 C.3     1  MOL1        0.1670
     18 O11        11.5370  -17.2600   -7.0880 O.3     1  MOL1       -0.4800
     19 C12        12.8690  -17.1760   -7.5020 C.ar    1  MOL1        0.1660
     20 C13        13.4720  -18.2190   -8.2430 C.ar    1  MOL1        0.0120
     21 C21        14.7880  -18.0570   -8.7070 C.ar    1  MOL1       -0.0540
     22 C22        15.5110  -16.9050   -8.4010 C.ar    1  MOL1       -0.0580
     23 C23        14.9310  -15.8990   -7.6270 C.ar    1  MOL1       -0.0160
     24 C24        13.6070  -16.0290   -7.1680 C.ar    1  MOL1        0.1610
     25 C14        12.7380  -19.5050   -8.5500 C.3     1  MOL1        0.0280
     26 N15        12.6030  -20.3250   -7.3280 N.3     1  MOL1       -0.2870
     27 C16        13.5990  -21.4090   -7.2910 C.3     1  MOL1        0.0640
     28 C17        12.5390  -22.4870   -7.4080 C.3     1  MOL1        0.2720
     29 F18        12.4190  -23.2740   -6.2750 F       1  MOL1       -0.2040
     30 F19        12.6050  -23.2080   -8.5880 F       1  MOL1       -0.2040
     31 C20        11.5450  -21.3430   -7.4560 C.3     1  MOL1        0.0640
     32 O25        12.9890  -15.0420   -6.3870 O.3     1  MOL1       -0.4930
     33 C26        13.6450  -14.2890   -5.3720 C.3     1  MOL1        0.0780
@<TRIPOS>BOND
     1     3     4   ar
     2     3     2   ar
     3     4     5   ar
     4     2     1   ar
     5     5     7   ar
     6     5     6    1
     7     1     7   ar
     8     1     8    1
     9    13    12    2
    10     8    14    1
    11     8     9    1
    12    21    22   ar
    13    21    20   ar
    14    12     9    1
    15    12    11   am
    16    16    15    2
    17    30    28    1
    18    25    20    1
    19    25    26    1
    20    14    15   am
    21    22    23   ar
    22    20    19   ar
    23    15    17    1
    24    10    11    1
    25    23    24   ar
    26    17    18    1
    27    19    24   ar
    28    19    18    1
    29    31    28    1
    30    31    26    1
    31    28    27    1
    32    28    29    1
    33    26    27    1
    34    24    32    1
    35    32    33    1
