@<TRIPOS>MOLECULE
L3024_0_out.pdbqt
 33 35 0 0 0
SMALL
GASTEIGER

@<TRIPOS>ATOM
      1 C27         6.8570  -18.8060   -9.3480 C.ar    1  MOL1       -0.0240
      2 C28         5.9920  -18.6560   -8.2490 C.ar    1  MOL1       -0.0570
      3 C29         5.1510  -19.7050   -7.8620 C.ar    1  MOL1       -0.0610
      4 C30         5.1640  -20.9110   -8.5680 C.ar    1  MOL1       -0.0480
      5 C31         6.0220  -21.0750   -9.6610 C.ar    1  MOL1        0.0180
      6 Br32        6.0560  -22.7340  -10.6120 Br      1  MOL1       -0.0510
      7 C33         6.8610  -20.0270  -10.0540 C.ar    1  MOL1       -0.0430
      8  C6         7.7110  -17.6430   -9.8050 C.3     1  MOL1        0.0630
      9  C5         7.7330  -17.5770  -11.3420 C.3     1  MOL1        0.0510
     10  C1         5.1950  -14.6250  -11.4880 C.3     1  MOL1        0.0060
     11  N2         6.1680  -15.5960  -11.0070 N.am    1  MOL1       -0.3590
     12  C3         6.7240  -16.5960  -11.8660 C.2     1  MOL1        0.2220
     13  O4         6.3700  -16.6590  -13.0750 O.2     1  MOL1       -0.2750
     14  N7         9.0720  -17.7720   -9.2730 N.am    1  MOL1       -0.3460
     15  C8         9.5830  -16.9140   -8.2510 C.2     1  MOL1        0.2580
     16  O9         8.8640  -15.9960   -7.7740 O.2     1  MOL1       -0.2710
     17 C10        10.9730  -17.1060   -7.7250 C.3     1  MOL1        0.1670
     18 O11        11.7800  -17.7880   -8.6830 O.3     1  MOL1       -0.4800
     19 C12        12.6200  -18.8450   -8.3260 C.ar    1  MOL1        0.1660
     20 C13        13.9930  -18.6320   -8.0630 C.ar    1  MOL1        0.0120
     21 C21        14.7840  -19.7090   -7.6310 C.ar    1  MOL1       -0.0540
     22 C22        14.2350  -20.9860   -7.5090 C.ar    1  MOL1       -0.0580
     23 C23        12.8920  -21.2050   -7.8180 C.ar    1  MOL1       -0.0160
     24 C24        12.0760  -20.1370   -8.2330 C.ar    1  MOL1        0.1610
     25 C14        14.6350  -17.2730   -8.2350 C.3     1  MOL1        0.0280
     26 N15        15.2420  -16.8240   -6.9650 N.3     1  MOL1       -0.2870
     27 C16        14.2220  -16.6040   -5.9260 C.3     1  MOL1        0.0640
     28 C17        14.4830  -15.1120   -5.8820 C.3     1  MOL1        0.2720
     29 F18        15.0330  -14.6790   -4.6880 F       1  MOL1       -0.2040
     30 F19        13.4150  -14.3460   -6.3190 F       1  MOL1       -0.2040
     31 C20        15.5150  -15.3770   -6.9610 C.3     1  MOL1        0.0640
     32 O25        10.7220  -20.3140   -8.5540 O.3     1  MOL1       -0.4930
     33 C26        10.1510  -21.5460   -8.9830 C.3     1  MOL1        0.0780
@<TRIPOS>BOND
     1    13    12    2
     2    12     9    1
     3    12    11   am
     4    10    11    1
     5     9     8    1
     6     6     5    1
     7     7     5   ar
     8     7     1   ar
     9     8     1    1
    10     8    14    1
    11     5     4   ar
    12     1     2   ar
    13    14    15   am
    14    33    32    1
    15    18    19    1
    16    18    17    1
    17     4     3   ar
    18    32    24    1
    19    19    24   ar
    20    19    20   ar
    21    15    16    2
    22    15    17    1
    23     2     3   ar
    24    25    20    1
    25    25    26    1
    26    24    23   ar
    27    20    21   ar
    28    23    22   ar
    29    21    22   ar
    30    26    31    1
    31    26    27    1
    32    31    28    1
    33    30    28    1
    34    27    28    1
    35    28    29    1
