@<TRIPOS>MOLECULE
L3024_0_out.pdbqt
 33 35 0 0 0
SMALL
GASTEIGER

@<TRIPOS>ATOM
      1 C27         7.9090  -19.5920   -9.4560 C.ar    1  MOL1       -0.0240
      2 C28         8.5490  -20.7550   -9.9220 C.ar    1  MOL1       -0.0570
      3 C29         8.0490  -22.0190   -9.5920 C.ar    1  MOL1       -0.0610
      4 C30         6.9070  -22.1350   -8.7930 C.ar    1  MOL1       -0.0480
      5 C31         6.2590  -20.9860   -8.3260 C.ar    1  MOL1        0.0180
      6 Br32        4.6840  -21.1450   -7.2510 Br      1  MOL1       -0.0510
      7 C33         6.7600  -19.7210   -8.6500 C.ar    1  MOL1       -0.0430
      8  C6         8.4980  -18.2310   -9.7570 C.3     1  MOL1        0.0630
      9  C5         7.8400  -17.6390  -11.0170 C.3     1  MOL1        0.0510
     10  C1         5.4080  -14.6210  -11.4020 C.3     1  MOL1        0.0060
     11  N2         6.3290  -15.7070  -11.7030 N.am    1  MOL1       -0.3590
     12  C3         6.9010  -16.5190  -10.6730 C.2     1  MOL1        0.2220
     13  O4         6.6150  -16.3010   -9.4640 O.2     1  MOL1       -0.2750
     14  N7         9.9510  -18.3340   -9.9330 N.am    1  MOL1       -0.3460
     15  C8        10.8800  -17.7680   -9.0060 C.2     1  MOL1        0.2580
     16  O9        10.4660  -17.1420   -7.9940 O.2     1  MOL1       -0.2710
     17 C10        12.3550  -17.9240   -9.2200 C.3     1  MOL1        0.1670
     18 O11        13.0660  -17.6550   -8.0140 O.3     1  MOL1       -0.4800
     19 C12        14.2120  -16.8560   -7.9920 C.ar    1  MOL1        0.1660
     20 C13        15.4300  -17.3090   -8.5490 C.ar    1  MOL1        0.0120
     21 C21        16.5360  -16.4430   -8.5760 C.ar    1  MOL1       -0.0540
     22 C22        16.4500  -15.1690   -8.0160 C.ar    1  MOL1       -0.0580
     23 C23        15.2630  -14.7420   -7.4210 C.ar    1  MOL1       -0.0160
     24 C24        14.1360  -15.5850   -7.4010 C.ar    1  MOL1        0.1610
     25 C14        15.5760  -18.7040   -9.1180 C.3     1  MOL1        0.0280
     26 N15        15.9620  -19.6560   -8.0560 N.3     1  MOL1       -0.2870
     27 C16        16.6270  -18.9740   -6.9330 C.3     1  MOL1        0.0640
     28 C17        17.9490  -19.6650   -7.2010 C.3     1  MOL1        0.2720
     29 F18        18.3290  -20.5440   -6.2010 F       1  MOL1       -0.2040
     30 F19        18.9570  -18.8040   -7.6040 F       1  MOL1       -0.2040
     31 C20        17.2330  -20.3370   -8.3560 C.3     1  MOL1        0.0640
     32 O25        12.9240  -15.1940   -6.8120 O.3     1  MOL1       -0.4930
     33 C26        12.6650  -15.2150   -5.4120 C.3     1  MOL1        0.0780
@<TRIPOS>BOND
     1    11    10    1
     2    11    12   am
     3     9    12    1
     4     9     8    1
     5    12    13    2
     6    14     8    1
     7    14    15   am
     8     2     3   ar
     9     2     1   ar
    10     8     1    1
    11     3     4   ar
    12     1     7   ar
    13    17    15    1
    14    17    18    1
    15    25    20    1
    16    25    26    1
    17    15    16    2
    18     4     5   ar
    19     7     5   ar
    20    21    20   ar
    21    21    22   ar
    22    20    19   ar
    23    31    26    1
    24    31    28    1
    25     5     6    1
    26    26    27    1
    27    22    23   ar
    28    18    19    1
    29    19    24   ar
    30    30    28    1
    31    23    24   ar
    32    24    32    1
    33    28    27    1
    34    28    29    1
    35    32    33    1
