@<TRIPOS>MOLECULE
L3024_0_out.pdbqt
 33 35 0 0 0
SMALL
GASTEIGER

@<TRIPOS>ATOM
      1 C27         7.5360  -17.1120  -10.2310 C.ar    1  MOL1       -0.0240
      2 C28         7.8810  -17.9960  -11.2690 C.ar    1  MOL1       -0.0570
      3 C29         7.3870  -17.7960  -12.5630 C.ar    1  MOL1       -0.0610
      4 C30         6.5450  -16.7140  -12.8320 C.ar    1  MOL1       -0.0480
      5 C31         6.1960  -15.8250  -11.8100 C.ar    1  MOL1        0.0180
      6 Br32        5.0610  -14.3310  -12.1840 Br      1  MOL1       -0.0510
      7 C33         6.6840  -16.0250  -10.5140 C.ar    1  MOL1       -0.0430
      8  C6         8.0150  -17.3760   -8.8200 C.3     1  MOL1        0.0630
      9  C5         7.5010  -16.2770   -7.8740 C.3     1  MOL1        0.0510
     10  C1         4.0250  -15.8570   -6.1660 C.3     1  MOL1        0.0060
     11  N2         5.3720  -15.5960   -6.6520 N.am    1  MOL1       -0.3590
     12  C3         6.1170  -16.5810   -7.3760 C.2     1  MOL1        0.2220
     13  O4         5.6130  -17.7140   -7.6050 O.2     1  MOL1       -0.2750
     14  N7         9.4800  -17.4450   -8.7850 N.am    1  MOL1       -0.3460
     15  C8        10.1850  -18.5840   -8.2890 C.2     1  MOL1        0.2580
     16  O9         9.5530  -19.5800   -7.8490 O.2     1  MOL1       -0.2710
     17 C10        11.6840  -18.6120   -8.3010 C.3     1  MOL1        0.1670
     18 O11        12.1800  -19.2750   -7.1400 O.3     1  MOL1       -0.4800
     19 C12        13.3240  -20.0760   -7.1760 C.ar    1  MOL1        0.1660
     20 C13        14.5950  -19.5510   -6.8490 C.ar    1  MOL1        0.0120
     21 C21        15.7060  -20.4100   -6.8210 C.ar    1  MOL1       -0.0540
     22 C22        15.5680  -21.7570   -7.1590 C.ar    1  MOL1       -0.0580
     23 C23        14.3220  -22.2620   -7.5300 C.ar    1  MOL1       -0.0160
     24 C24        13.1910  -21.4250   -7.5460 C.ar    1  MOL1        0.1610
     25 C14        14.7930  -18.0850   -6.5290 C.3     1  MOL1        0.0280
     26 N15        15.1350  -17.3320   -7.7520 N.3     1  MOL1       -0.2870
     27 C16        16.5890  -17.1370   -7.8790 C.3     1  MOL1        0.0640
     28 C17        16.4760  -15.6350   -7.7080 C.3     1  MOL1        0.2720
     29 F18        16.8150  -14.9190   -8.8430 F       1  MOL1       -0.2040
     30 F19        17.0660  -15.1600   -6.5480 F       1  MOL1       -0.2040
     31 C20        14.9860  -15.8780   -7.5690 C.3     1  MOL1        0.0640
     32 O25        11.9220  -21.8930   -7.9140 O.3     1  MOL1       -0.4930
     33 C26        11.6690  -23.1760   -8.4790 C.3     1  MOL1        0.0780
@<TRIPOS>BOND
     1     4     3   ar
     2     4     5   ar
     3     3     2   ar
     4     6     5    1
     5     5     7   ar
     6     2     1   ar
     7     7     1   ar
     8     1     8    1
     9    29    28    1
    10     8    14    1
    11     8     9    1
    12    14    15   am
    13    33    32    1
    14    17    15    1
    15    17    18    1
    16    15    16    2
    17    32    24    1
    18    27    26    1
    19    27    28    1
    20     9    12    1
    21    26    31    1
    22    26    25    1
    23    28    31    1
    24    28    30    1
    25    13    12    2
    26    24    23   ar
    27    24    19   ar
    28    23    22   ar
    29    12    11   am
    30    19    18    1
    31    19    20   ar
    32    22    21   ar
    33    20    21   ar
    34    20    25    1
    35    11    10    1
