@<TRIPOS>MOLECULE
L3024_0_out.pdbqt
 33 35 0 0 0
SMALL
GASTEIGER

@<TRIPOS>ATOM
      1 C27         9.9220  -19.1130   -8.7390 C.ar    1  MOL1       -0.0240
      2 C28         9.7760  -18.3070   -9.8820 C.ar    1  MOL1       -0.0570
      3 C29         8.5400  -18.2150  -10.5300 C.ar    1  MOL1       -0.0610
      4 C30         7.4390  -18.9260  -10.0440 C.ar    1  MOL1       -0.0480
      5 C31         7.5700  -19.7290   -8.9060 C.ar    1  MOL1        0.0180
      6 Br32        6.0570  -20.6850   -8.2300 Br      1  MOL1       -0.0510
      7 C33         8.8060  -19.8280   -8.2590 C.ar    1  MOL1       -0.0430
      8  C6        11.2800  -19.2640   -8.0870 C.3     1  MOL1        0.0630
      9  C5        11.3470  -20.5920   -7.3110 C.3     1  MOL1        0.0510
     10  C1        15.0450  -21.2290   -8.3570 C.3     1  MOL1        0.0060
     11  N2        13.7430  -20.6030   -8.1750 N.am    1  MOL1       -0.3590
     12  C3        12.6760  -21.2680   -7.4910 C.2     1  MOL1        0.2220
     13  O4        12.8460  -22.4300   -7.0310 O.2     1  MOL1       -0.2750
     14  N7        11.5440  -18.1310   -7.1940 N.am    1  MOL1       -0.3460
     15  C8        12.4380  -17.0710   -7.5410 C.2     1  MOL1        0.2580
     16  O9        13.0450  -17.0870   -8.6440 O.2     1  MOL1       -0.2710
     17 C10        12.6510  -15.9220   -6.6020 C.3     1  MOL1        0.1670
     18 O11        14.0420  -15.6350   -6.4720 O.3     1  MOL1       -0.4800
     19 C12        14.8290  -16.2170   -5.4750 C.ar    1  MOL1        0.1660
     20 C13        15.7790  -17.2170   -5.7840 C.ar    1  MOL1        0.0120
     21 C21        16.6040  -17.7180   -4.7620 C.ar    1  MOL1       -0.0540
     22 C22        16.4560  -17.2700   -3.4500 C.ar    1  MOL1       -0.0580
     23 C23        15.4840  -16.3200   -3.1380 C.ar    1  MOL1       -0.0160
     24 C24        14.6590  -15.7890   -4.1480 C.ar    1  MOL1        0.1610
     25 C14        15.9320  -17.7650   -7.1850 C.3     1  MOL1        0.0280
     26 N15        17.2490  -17.3960   -7.7430 N.3     1  MOL1       -0.2870
     27 C16        17.1120  -16.5520   -8.9430 C.3     1  MOL1        0.0640
     28 C17        17.6990  -17.6180   -9.8480 C.3     1  MOL1        0.2720
     29 F18        18.9230  -17.2720  -10.3920 F       1  MOL1       -0.2040
     30 F19        16.7970  -18.1230  -10.7710 F       1  MOL1       -0.2040
     31 C20        17.8110  -18.4600   -8.5920 C.3     1  MOL1        0.0640
     32 O25        13.6690  -14.8330   -3.8770 O.3     1  MOL1       -0.4930
     33 C26        13.8710  -13.6670   -3.0860 C.3     1  MOL1        0.0780
@<TRIPOS>BOND
     1    30    28    1
     2     3     4   ar
     3     3     2   ar
     4    29    28    1
     5     4     5   ar
     6     2     1   ar
     7    28    27    1
     8    28    31    1
     9    27    26    1
    10     5     7   ar
    11     5     6    1
    12     1     7   ar
    13     1     8    1
    14    16    15    2
    15    31    26    1
    16    10    11    1
    17    11    12   am
    18     8     9    1
    19     8    14    1
    20    26    25    1
    21    15    14   am
    22    15    17    1
    23    12     9    1
    24    12    13    2
    25    25    20    1
    26    17    18    1
    27    18    19    1
    28    20    19   ar
    29    20    21   ar
    30    19    24   ar
    31    21    22   ar
    32    24    32    1
    33    24    23   ar
    34    32    33    1
    35    22    23   ar
