@<TRIPOS>MOLECULE
L3024_0_out.pdbqt
 33 35 0 0 0
SMALL
GASTEIGER

@<TRIPOS>ATOM
      1 C27        15.0020  -19.8000   -5.7540 C.ar    1  MOL1       -0.0240
      2 C28        15.2240  -20.2100   -4.4260 C.ar    1  MOL1       -0.0570
      3 C29        15.5470  -19.2720   -3.4400 C.ar    1  MOL1       -0.0610
      4 C30        15.6530  -17.9180   -3.7690 C.ar    1  MOL1       -0.0480
      5 C31        15.4320  -17.4960   -5.0850 C.ar    1  MOL1        0.0180
      6 Br32       15.5560  -15.6390   -5.5290 Br      1  MOL1       -0.0510
      7 C33        15.1130  -18.4320   -6.0740 C.ar    1  MOL1       -0.0430
      8  C6        14.7240  -20.8290   -6.8280 C.3     1  MOL1        0.0630
      9  C5        15.9140  -20.9110   -7.8000 C.3     1  MOL1        0.0510
     10  C1        19.3240  -22.7320   -7.3200 C.3     1  MOL1        0.0060
     11  N2        18.3020  -21.7960   -7.7660 N.am    1  MOL1       -0.3590
     12  C3        16.9420  -21.8990   -7.3300 C.2     1  MOL1        0.2220
     13  O4        16.5990  -22.8220   -6.5420 O.2     1  MOL1       -0.2750
     14  N7        13.4910  -20.4920   -7.5480 N.am    1  MOL1       -0.3460
     15  C8        12.3430  -21.3430   -7.5480 C.2     1  MOL1        0.2580
     16  O9        12.3630  -22.4370   -6.9230 O.2     1  MOL1       -0.2710
     17 C10        11.0980  -20.9380   -8.2790 C.3     1  MOL1        0.1670
     18 O11        10.2440  -20.1790   -7.4270 O.3     1  MOL1       -0.4800
     19 C12         9.5940  -19.0230   -7.8670 C.ar    1  MOL1        0.1660
     20 C13         8.2610  -19.0670   -8.3370 C.ar    1  MOL1        0.0120
     21 C21         7.6210  -17.8690   -8.6960 C.ar    1  MOL1       -0.0540
     22 C22         8.3050  -16.6550   -8.6350 C.ar    1  MOL1       -0.0580
     23 C23         9.6360  -16.6200   -8.2190 C.ar    1  MOL1       -0.0160
     24 C24        10.2920  -17.8050   -7.8360 C.ar    1  MOL1        0.1610
     25 C14         7.5050  -20.3710   -8.4670 C.3     1  MOL1        0.0280
     26 N15         6.1790  -20.1400   -9.0760 N.3     1  MOL1       -0.2870
     27 C16         5.1260  -20.0240   -8.0540 C.3     1  MOL1        0.0640
     28 C17         4.4450  -21.3010   -8.5070 C.3     1  MOL1        0.2720
     29 F18         3.1930  -21.0960   -9.0600 F       1  MOL1       -0.2040
     30 F19         4.4830  -22.3170   -7.5660 F       1  MOL1       -0.2040
     31 C20         5.5540  -21.3910   -9.5370 C.3     1  MOL1        0.0640
     32 O25        11.6290  -17.8130   -7.4130 O.3     1  MOL1       -0.4930
     33 C26        12.5630  -16.7690   -7.6710 C.3     1  MOL1        0.0780
@<TRIPOS>BOND
     1    31    26    1
     2    31    28    1
     3    26    25    1
     4    26    27    1
     5    29    28    1
     6    21    22   ar
     7    21    20   ar
     8    22    23   ar
     9    28    27    1
    10    28    30    1
    11    25    20    1
    12    20    19   ar
    13    17    15    1
    14    17    18    1
    15    23    24   ar
    16    19    24   ar
    17    19    18    1
    18    24    32    1
    19     9    12    1
    20     9     8    1
    21    11    12   am
    22    11    10    1
    23    33    32    1
    24    15    14   am
    25    15    16    2
    26    14     8    1
    27    12    13    2
    28     8     1    1
    29     7     1   ar
    30     7     5   ar
    31     1     2   ar
    32     6     5    1
    33     5     4   ar
    34     2     3   ar
    35     4     3   ar
