@<TRIPOS>MOLECULE
L3024_0_out.pdbqt
 33 35 0 0 0
SMALL
GASTEIGER

@<TRIPOS>ATOM
      1 C27        17.9300  -17.4420  -11.1900 C.ar    1  MOL1       -0.0240
      2 C28        18.6550  -16.2550  -11.3990 C.ar    1  MOL1       -0.0570
      3 C29        18.8360  -15.7560  -12.6940 C.ar    1  MOL1       -0.0610
      4 C30        18.2970  -16.4350  -13.7890 C.ar    1  MOL1       -0.0480
      5 C31        17.5710  -17.6160  -13.5950 C.ar    1  MOL1        0.0180
      6 Br32       16.8140  -18.5330  -15.0930 Br      1  MOL1       -0.0510
      7 C33        17.3920  -18.1210  -12.3030 C.ar    1  MOL1       -0.0430
      8  C6        17.8000  -18.0140   -9.7950 C.3     1  MOL1        0.0630
      9  C5        17.9880  -19.5420   -9.8310 C.3     1  MOL1        0.0510
     10  C1        20.5780  -21.3160   -7.5260 C.3     1  MOL1        0.0060
     11  N2        19.3270  -20.8930   -8.1370 N.am    1  MOL1       -0.3590
     12  C3        19.2940  -19.9500   -9.2150 C.2     1  MOL1        0.2220
     13  O4        20.3680  -19.4580   -9.6570 O.2     1  MOL1       -0.2750
     14  N7        16.4940  -17.6680   -9.2230 N.am    1  MOL1       -0.3460
     15  C8        16.3180  -16.5860   -8.3060 C.2     1  MOL1        0.2580
     16  O9        17.3050  -15.8900   -7.9480 O.2     1  MOL1       -0.2710
     17 C10        14.9560  -16.2590   -7.7720 C.3     1  MOL1        0.1670
     18 O11        14.5790  -17.1910   -6.7610 O.3     1  MOL1       -0.4800
     19 C12        15.3710  -17.4210   -5.6330 C.ar    1  MOL1        0.1660
     20 C13        16.1110  -18.6170   -5.4910 C.ar    1  MOL1        0.0120
     21 C21        16.9550  -18.7730   -4.3790 C.ar    1  MOL1       -0.0540
     22 C22        17.0270  -17.7820   -3.4010 C.ar    1  MOL1       -0.0580
     23 C23        16.2580  -16.6240   -3.5170 C.ar    1  MOL1       -0.0160
     24 C24        15.4200  -16.4370   -4.6320 C.ar    1  MOL1        0.1610
     25 C14        16.0180  -19.7370   -6.5040 C.3     1  MOL1        0.0280
     26 N15        15.9210  -21.0430   -5.8220 N.3     1  MOL1       -0.2870
     27 C16        16.1760  -22.1590   -6.7490 C.3     1  MOL1        0.0640
     28 C17        14.7530  -22.6720   -6.6390 C.3     1  MOL1        0.2720
     29 F18        14.6540  -23.9050   -6.0190 F       1  MOL1       -0.2040
     30 F19        14.0330  -22.5760   -7.8190 F       1  MOL1       -0.2040
     31 C20        14.5270  -21.5040   -5.6990 C.3     1  MOL1        0.0640
     32 O25        14.6300  -15.2890   -4.7870 O.3     1  MOL1       -0.4930
     33 C26        13.9130  -14.6560   -3.7320 C.3     1  MOL1        0.0780
@<TRIPOS>BOND
     1     6     5    1
     2     4     5   ar
     3     4     3   ar
     4     5     7   ar
     5     3     2   ar
     6     7     1   ar
     7     2     1   ar
     8     1     8    1
     9     9     8    1
    10     9    12    1
    11     8    14    1
    12    13    12    2
    13    14    15   am
    14    12    11   am
    15    15    16    2
    16    15    17    1
    17    11    10    1
    18    30    28    1
    19    17    18    1
    20    18    19    1
    21    27    28    1
    22    27    26    1
    23    28    29    1
    24    28    31    1
    25    25    26    1
    26    25    20    1
    27    26    31    1
    28    19    20   ar
    29    19    24   ar
    30    20    21   ar
    31    32    24    1
    32    32    33    1
    33    24    23   ar
    34    21    22   ar
    35    23    22   ar
