@<TRIPOS>MOLECULE
L3024_0_out.pdbqt
 33 35 0 0 0
SMALL
GASTEIGER

@<TRIPOS>ATOM
      1 C27         9.5910  -18.2300   -9.1580 C.ar    1  MOL1       -0.0240
      2 C28         9.2450  -17.2310   -8.2300 C.ar    1  MOL1       -0.0570
      3 C29         8.2540  -16.2920   -8.5380 C.ar    1  MOL1       -0.0610
      4 C30         7.6000  -16.3420   -9.7720 C.ar    1  MOL1       -0.0480
      5 C31         7.9320  -17.3330  -10.7020 C.ar    1  MOL1        0.0180
      6 Br32        7.0210  -17.4130  -12.3830 Br      1  MOL1       -0.0510
      7 C33         8.9260  -18.2700  -10.4000 C.ar    1  MOL1       -0.0430
      8  C6        10.7130  -19.1970   -8.8470 C.3     1  MOL1        0.0630
      9  C5        10.1520  -20.4540   -8.1600 C.3     1  MOL1        0.0510
     10  C1         9.4380  -22.8260  -11.1660 C.3     1  MOL1        0.0060
     11  N2         9.4040  -21.6880  -10.2590 N.am    1  MOL1       -0.3590
     12  C3        10.2010  -21.6470   -9.0700 C.2     1  MOL1        0.2220
     13  O4        10.9540  -22.6160   -8.7800 O.2     1  MOL1       -0.2750
     14  N7        11.7200  -18.5500   -7.9970 N.am    1  MOL1       -0.3460
     15  C8        13.0510  -18.2870   -8.4460 C.2     1  MOL1        0.2580
     16  O9        13.4070  -18.6210   -9.6070 O.2     1  MOL1       -0.2710
     17 C10        14.0330  -17.6000   -7.5450 C.3     1  MOL1        0.1670
     18 O11        14.6330  -18.5370   -6.6540 O.3     1  MOL1       -0.4800
     19 C12        15.9810  -18.4600   -6.2950 C.ar    1  MOL1        0.1660
     20 C13        16.3820  -17.8550   -5.0820 C.ar    1  MOL1        0.0120
     21 C21        17.7400  -17.8700   -4.7240 C.ar    1  MOL1       -0.0540
     22 C22        18.6910  -18.4320   -5.5770 C.ar    1  MOL1       -0.0580
     23 C23        18.2990  -18.9840   -6.7970 C.ar    1  MOL1       -0.0160
     24 C24        16.9410  -18.9980   -7.1670 C.ar    1  MOL1        0.1610
     25 C14        15.3870  -17.1890   -4.1570 C.3     1  MOL1        0.0280
     26 N15        15.5560  -15.7220   -4.1890 N.3     1  MOL1       -0.2870
     27 C16        15.0480  -15.0910   -2.9580 C.3     1  MOL1        0.0640
     28 C17        13.9330  -14.3770   -3.6960 C.3     1  MOL1        0.2720
     29 F18        14.0720  -13.0000   -3.7140 F       1  MOL1       -0.2040
     30 F19        12.6650  -14.8090   -3.3450 F       1  MOL1       -0.2040
     31 C20        14.4770  -15.0550   -4.9390 C.3     1  MOL1        0.0640
     32 O25        16.5070  -19.5410   -8.3850 O.3     1  MOL1       -0.4930
     33 C26        17.3350  -19.7180   -9.5300 C.3     1  MOL1        0.0780
@<TRIPOS>BOND
     1     6     5    1
     2    10    11    1
     3     5     7   ar
     4     5     4   ar
     5     7     1   ar
     6    11    12   am
     7     4     3   ar
     8    16    15    2
     9    33    32    1
    10     1     8    1
    11     1     2   ar
    12    12    13    2
    13    12     9    1
    14     8     9    1
    15     8    14    1
    16     3     2   ar
    17    15    14   am
    18    15    17    1
    19    32    24    1
    20    17    18    1
    21    24    23   ar
    22    24    19   ar
    23    23    22   ar
    24    18    19    1
    25    19    20   ar
    26    22    21   ar
    27    20    21   ar
    28    20    25    1
    29    31    26    1
    30    31    28    1
    31    26    25    1
    32    26    27    1
    33    29    28    1
    34    28    30    1
    35    28    27    1
