@<TRIPOS>MOLECULE
L3024_0_out.pdbqt
 33 35 0 0 0
SMALL
GASTEIGER

@<TRIPOS>ATOM
      1 C27        15.1260  -16.5220   -4.6500 C.ar    1  MOL1       -0.0240
      2 C28        14.3350  -15.4070   -4.9830 C.ar    1  MOL1       -0.0570
      3 C29        13.7010  -14.6650   -3.9810 C.ar    1  MOL1       -0.0610
      4 C30        13.8500  -15.0270   -2.6400 C.ar    1  MOL1       -0.0480
      5 C31        14.6370  -16.1310   -2.2940 C.ar    1  MOL1        0.0180
      6 Br32       14.8590  -16.6120   -0.4560 Br      1  MOL1       -0.0510
      7 C33        15.2680  -16.8790   -3.2940 C.ar    1  MOL1       -0.0430
      8  C6        15.7490  -17.3620   -5.7440 C.3     1  MOL1        0.0630
      9  C5        17.0000  -16.6600   -6.3010 C.3     1  MOL1        0.0510
     10  C1        17.3660  -17.4700  -10.0940 C.3     1  MOL1        0.0060
     11  N2        17.4240  -17.5690   -8.6420 N.am    1  MOL1       -0.3590
     12  C3        16.9360  -16.5240   -7.7950 C.2     1  MOL1        0.2220
     13  O4        16.4430  -15.4780   -8.3000 O.2     1  MOL1       -0.2750
     14  N7        14.7750  -17.6070   -6.8130 N.am    1  MOL1       -0.3460
     15  C8        14.3300  -18.9200   -7.1620 C.2     1  MOL1        0.2580
     16  O9        14.7800  -19.9260   -6.5520 O.2     1  MOL1       -0.2710
     17 C10        13.3120  -19.1120   -8.2460 C.3     1  MOL1        0.1670
     18 O11        12.0910  -19.6080   -7.7030 O.3     1  MOL1       -0.4800
     19 C12        11.2650  -20.4830   -8.4130 C.ar    1  MOL1        0.1660
     20 C13        10.2570  -19.9970   -9.2770 C.ar    1  MOL1        0.0120
     21 C21         9.5020  -20.9100  -10.0310 C.ar    1  MOL1       -0.0540
     22 C22         9.7090  -22.2830   -9.8960 C.ar    1  MOL1       -0.0580
     23 C23        10.6700  -22.7620   -9.0050 C.ar    1  MOL1       -0.0160
     24 C24        11.4520  -21.8650   -8.2530 C.ar    1  MOL1        0.1610
     25 C14         9.9670  -18.5180   -9.4100 C.3     1  MOL1        0.0280
     26 N15         9.1110  -18.0580   -8.2980 N.3     1  MOL1       -0.2870
     27 C16         7.6810  -18.2180   -8.6130 C.3     1  MOL1        0.0640
     28 C17         7.4400  -16.7220   -8.6230 C.3     1  MOL1        0.2720
     29 F18         6.6220  -16.2830   -7.5960 F       1  MOL1       -0.2040
     30 F19         7.0950  -16.2210   -9.8680 F       1  MOL1       -0.2040
     31 C20         8.9190  -16.5970   -8.3120 C.3     1  MOL1        0.0640
     32 O25        12.4270  -22.3060   -7.3470 O.3     1  MOL1       -0.4930
     33 C26        13.5680  -23.0800   -7.7040 C.3     1  MOL1        0.0780
@<TRIPOS>BOND
     1    10    11    1
     2    21    22   ar
     3    21    20   ar
     4    22    23   ar
     5    30    28    1
     6    25    20    1
     7    25    26    1
     8    20    19   ar
     9    23    24   ar
    10    11    12   am
    11    28    27    1
    12    28    31    1
    13    28    29    1
    14    27    26    1
    15    19    24   ar
    16    19    18    1
    17    31    26    1
    18    13    12    2
    19    24    32    1
    20    17    18    1
    21    17    15    1
    22    12     9    1
    23    33    32    1
    24    15    14   am
    25    15    16    2
    26    14     8    1
    27     9     8    1
    28     8     1    1
    29     2     1   ar
    30     2     3   ar
    31     1     7   ar
    32     3     4   ar
    33     7     5   ar
    34     4     5   ar
    35     5     6    1
