@<TRIPOS>MOLECULE
L3024_0_out.pdbqt
 33 35 0 0 0
SMALL
GASTEIGER

@<TRIPOS>ATOM
      1 C27         6.8400  -18.1530   -8.4630 C.ar    1  MOL1       -0.0240
      2 C28         6.3930  -16.9570   -7.8710 C.ar    1  MOL1       -0.0570
      3 C29         5.1720  -16.9180   -7.1900 C.ar    1  MOL1       -0.0610
      4 C30         4.3860  -18.0690   -7.0920 C.ar    1  MOL1       -0.0480
      5 C31         4.8200  -19.2660   -7.6730 C.ar    1  MOL1        0.0180
      6 Br32        3.7540  -20.8470   -7.5200 Br      1  MOL1       -0.0510
      7 C33         6.0380  -19.3080   -8.3600 C.ar    1  MOL1       -0.0430
      8  C6         8.1260  -18.1690   -9.2600 C.3     1  MOL1        0.0630
      9  C5         7.8430  -18.6010  -10.7100 C.3     1  MOL1        0.0510
     10  C1         6.0500  -15.2640  -11.6210 C.3     1  MOL1        0.0060
     11  N2         6.6150  -16.3750  -10.8670 N.am    1  MOL1       -0.3590
     12  C3         7.2610  -17.4750  -11.5160 C.2     1  MOL1        0.2220
     13  O4         7.3490  -17.5050  -12.7740 O.2     1  MOL1       -0.2750
     14  N7         9.1010  -19.0690   -8.6340 N.am    1  MOL1       -0.3460
     15  C8        10.2170  -18.5900   -7.8810 C.2     1  MOL1        0.2580
     16  O9        10.4050  -17.3520   -7.7400 O.2     1  MOL1       -0.2710
     17 C10        11.1690  -19.5550   -7.2400 C.3     1  MOL1        0.1670
     18 O11        12.3750  -19.6420   -7.9950 O.3     1  MOL1       -0.4800
     19 C12        13.5660  -20.1180   -7.4390 C.ar    1  MOL1        0.1660
     20 C13        14.5270  -19.2310   -6.9020 C.ar    1  MOL1        0.0120
     21 C21        15.6730  -19.7570   -6.2820 C.ar    1  MOL1       -0.0540
     22 C22        15.8850  -21.1350   -6.2370 C.ar    1  MOL1       -0.0580
     23 C23        14.9590  -22.0050   -6.8110 C.ar    1  MOL1       -0.0160
     24 C24        13.7940  -21.5030   -7.4200 C.ar    1  MOL1        0.1610
     25 C14        14.3580  -17.7300   -6.9800 C.3     1  MOL1        0.0280
     26 N15        15.6700  -17.0570   -6.8880 N.3     1  MOL1       -0.2870
     27 C16        15.5730  -15.7770   -6.1670 C.3     1  MOL1        0.0640
     28 C17        15.9200  -14.9710   -7.4030 C.3     1  MOL1        0.2720
     29 F18        17.1380  -14.3200   -7.3190 F       1  MOL1       -0.2040
     30 F19        14.8850  -14.1680   -7.8530 F       1  MOL1       -0.2040
     31 C20        15.9970  -16.3080   -8.1140 C.3     1  MOL1        0.0640
     32 O25        12.8390  -22.3450   -8.0100 O.3     1  MOL1       -0.4930
     33 C26        12.8010  -23.7580   -7.8470 C.3     1  MOL1        0.0780
@<TRIPOS>BOND
     1    13    12    2
     2    10    11    1
     3    12    11   am
     4    12     9    1
     5     9     8    1
     6     8    14    1
     7     8     1    1
     8    14    15   am
     9     1     7   ar
    10     1     2   ar
    11     7     5   ar
    12    31    28    1
    13    31    26    1
    14    32    33    1
    15    32    24    1
    16    18    19    1
    17    18    17    1
    18    15    16    2
    19    15    17    1
    20     2     3   ar
    21    30    28    1
    22     5     6    1
    23     5     4   ar
    24    19    24   ar
    25    19    20   ar
    26    24    23   ar
    27    28    29    1
    28    28    27    1
    29     3     4   ar
    30    25    20    1
    31    25    26    1
    32    20    21   ar
    33    26    27    1
    34    23    22   ar
    35    21    22   ar
