@<TRIPOS>MOLECULE
L3024_0_out.pdbqt
 33 35 0 0 0
SMALL
GASTEIGER

@<TRIPOS>ATOM
      1 C27         6.8480  -19.6280   -9.7940 C.ar    1  MOL1       -0.0240
      2 C28         6.9430  -20.5370  -10.8630 C.ar    1  MOL1       -0.0570
      3 C29         6.2650  -21.7590  -10.8160 C.ar    1  MOL1       -0.0610
      4 C30         5.4860  -22.0860   -9.7020 C.ar    1  MOL1       -0.0480
      5 C31         5.3790  -21.1900   -8.6330 C.ar    1  MOL1        0.0180
      6 Br32        4.2950  -21.6280   -7.1190 Br      1  MOL1       -0.0510
      7 C33         6.0610  -19.9690   -8.6750 C.ar    1  MOL1       -0.0430
      8  C6         7.6420  -18.3400   -9.8210 C.3     1  MOL1        0.0630
      9  C5         8.4510  -18.1920   -8.5190 C.3     1  MOL1        0.0510
     10  C1        11.6080  -20.1900   -7.4190 C.3     1  MOL1        0.0060
     11  N2        10.3610  -19.4400   -7.3880 N.am    1  MOL1       -0.3590
     12  C3         9.7430  -18.9530   -8.5840 C.2     1  MOL1        0.2220
     13  O4        10.2820  -19.1640   -9.7050 O.2     1  MOL1       -0.2750
     14  N7         6.7460  -17.1940  -10.0060 N.am    1  MOL1       -0.3460
     15  C8         6.5570  -16.5630  -11.2740 C.2     1  MOL1        0.2580
     16  O9         7.1760  -16.9780  -12.2890 O.2     1  MOL1       -0.2710
     17 C10         5.6080  -15.4100  -11.4130 C.3     1  MOL1        0.1670
     18 O11         5.3540  -14.8170  -10.1420 O.3     1  MOL1       -0.4800
     19 C12         4.0600  -14.6800   -9.6330 C.ar    1  MOL1        0.1660
     20 C13         3.0940  -13.8870  -10.2940 C.ar    1  MOL1        0.0120
     21 C21         1.7830  -13.8420   -9.7910 C.ar    1  MOL1       -0.0540
     22 C22         1.4480  -14.5310   -8.6260 C.ar    1  MOL1       -0.0580
     23 C23         2.4150  -15.2720   -7.9470 C.ar    1  MOL1       -0.0160
     24 C24         3.7300  -15.3490   -8.4430 C.ar    1  MOL1        0.1610
     25 C14         3.4340  -13.0830  -11.5300 C.3     1  MOL1        0.0280
     26 N15         2.2360  -12.3810  -12.0340 N.3     1  MOL1       -0.2870
     27 C16         2.5790  -11.4190  -13.0960 C.3     1  MOL1        0.0640
     28 C17         2.1830  -10.2280  -12.2460 C.3     1  MOL1        0.2720
     29 F18         1.0740   -9.5500  -12.7220 F       1  MOL1       -0.2040
     30 F19         3.2440   -9.4030  -11.9130 F       1  MOL1       -0.2040
     31 C20         1.8540  -11.2480  -11.1730 C.3     1  MOL1        0.0640
     32 O25         4.7310  -16.0830   -7.7900 O.3     1  MOL1       -0.4930
     33 C26         5.2980  -15.7300   -6.5330 C.3     1  MOL1        0.0780
@<TRIPOS>BOND
     1    27    28    1
     2    27    26    1
     3    29    28    1
     4    16    15    2
     5    28    30    1
     6    28    31    1
     7    26    25    1
     8    26    31    1
     9    25    20    1
    10    17    15    1
    11    17    18    1
    12    15    14   am
    13     2     3   ar
    14     2     1   ar
    15     3     4   ar
    16    20    21   ar
    17    20    19   ar
    18    18    19    1
    19    14     8    1
    20     8     1    1
    21     8     9    1
    22     1     7   ar
    23    21    22   ar
    24    13    12    2
    25     4     5   ar
    26    19    24   ar
    27     7     5   ar
    28     5     6    1
    29    22    23   ar
    30    12     9    1
    31    12    11   am
    32    24    23   ar
    33    24    32    1
    34    32    33    1
    35    10    11    1
