@<TRIPOS>MOLECULE
L3024_0_out.pdbqt
 33 35 0 0 0
SMALL
GASTEIGER

@<TRIPOS>ATOM
      1 C27        15.2200  -19.3940   -5.5820 C.ar    1  MOL1       -0.0240
      2 C28        15.8050  -20.1100   -4.5210 C.ar    1  MOL1       -0.0570
      3 C29        16.5470  -19.4420   -3.5410 C.ar    1  MOL1       -0.0610
      4 C30        16.7130  -18.0560   -3.6100 C.ar    1  MOL1       -0.0480
      5 C31        16.1340  -17.3320   -4.6580 C.ar    1  MOL1        0.0180
      6 Br32       16.3430  -15.4320   -4.7390 Br      1  MOL1       -0.0510
      7 C33        15.3960  -17.9960   -5.6420 C.ar    1  MOL1       -0.0430
      8  C6        14.4800  -20.1310   -6.6770 C.3     1  MOL1        0.0630
      9  C5        15.1630  -19.8830   -8.0340 C.3     1  MOL1        0.0510
     10  C1        18.0220  -21.9130   -9.7310 C.3     1  MOL1        0.0060
     11  N2        17.1290  -20.8280   -9.3480 N.am    1  MOL1       -0.3590
     12  C3        16.0600  -21.0240   -8.4160 C.2     1  MOL1        0.2220
     13  O4        15.8670  -22.1610   -7.9050 O.2     1  MOL1       -0.2750
     14  N7        13.0770  -19.7050   -6.7180 N.am    1  MOL1       -0.3460
     15  C8        11.9900  -20.6320   -6.6690 C.2     1  MOL1        0.2580
     16  O9        12.2130  -21.8700   -6.5980 O.2     1  MOL1       -0.2710
     17 C10        10.5740  -20.1410   -6.6890 C.3     1  MOL1        0.1670
     18 O11        10.2210  -19.6870   -7.9940 O.3     1  MOL1       -0.4800
     19 C12         9.2130  -18.7430   -8.2020 C.ar    1  MOL1        0.1660
     20 C13         7.8620  -19.1350   -8.3500 C.ar    1  MOL1        0.0120
     21 C21         6.8720  -18.1460   -8.4790 C.ar    1  MOL1       -0.0540
     22 C22         7.2190  -16.7960   -8.5100 C.ar    1  MOL1       -0.0580
     23 C23         8.5580  -16.4140   -8.4150 C.ar    1  MOL1       -0.0160
     24 C24         9.5650  -17.3840   -8.2650 C.ar    1  MOL1        0.1610
     25 C14         7.4540  -20.5910   -8.3740 C.3     1  MOL1        0.0280
     26 N15         6.8520  -20.9360   -9.6780 N.3     1  MOL1       -0.2870
     27 C16         6.8650  -22.3900   -9.9130 C.3     1  MOL1        0.0640
     28 C17         7.8350  -22.2680  -11.0710 C.3     1  MOL1        0.2720
     29 F18         7.2860  -22.6090  -12.2950 F       1  MOL1       -0.2040
     30 F19         9.0690  -22.8490  -10.8280 F       1  MOL1       -0.2040
     31 C20         7.8060  -20.7780  -10.7900 C.3     1  MOL1        0.0640
     32 O25        10.9220  -17.0420   -8.1670 O.3     1  MOL1       -0.4930
     33 C26        11.5300  -16.4860   -7.0060 C.3     1  MOL1        0.0780
@<TRIPOS>BOND
     1    29    28    1
     2    28    30    1
     3    28    31    1
     4    28    27    1
     5    31    26    1
     6    27    26    1
     7    10    11    1
     8    26    25    1
     9    11    12   am
    10    22    21   ar
    11    22    23   ar
    12    21    20   ar
    13    12     9    1
    14    12    13    2
    15    23    24   ar
    16    25    20    1
    17    20    19   ar
    18    24    19   ar
    19    24    32    1
    20    19    18    1
    21    32    33    1
    22     9     8    1
    23    18    17    1
    24    14     8    1
    25    14    15   am
    26    17    15    1
    27     8     1    1
    28    15    16    2
    29     7     1   ar
    30     7     5   ar
    31     1     2   ar
    32     6     5    1
    33     5     4   ar
    34     2     3   ar
    35     4     3   ar
