@<TRIPOS>MOLECULE
L3024_0_out.pdbqt
 33 35 0 0 0
SMALL
GASTEIGER

@<TRIPOS>ATOM
      1 C27         8.2600  -18.3350   -9.4480 C.ar    1  MOL1       -0.0240
      2 C28         8.1860  -17.6230  -10.6590 C.ar    1  MOL1       -0.0570
      3 C29         7.2310  -16.6150  -10.8300 C.ar    1  MOL1       -0.0610
      4 C30         6.3420  -16.3070   -9.7960 C.ar    1  MOL1       -0.0480
      5 C31         6.4080  -17.0050   -8.5850 C.ar    1  MOL1        0.0180
      6 Br32        5.2050  -16.5690   -7.1620 Br      1  MOL1       -0.0510
      7 C33         7.3570  -18.0180   -8.4120 C.ar    1  MOL1       -0.0430
      8  C6         9.2460  -19.4720   -9.2970 C.3     1  MOL1        0.0630
      9  C5         8.5360  -20.7150   -8.7320 C.3     1  MOL1        0.0510
     10  C1        10.2290  -23.9280  -10.1390 C.3     1  MOL1        0.0060
     11  N2         9.9550  -22.7390   -9.3450 N.am    1  MOL1       -0.3590
     12  C3         8.7960  -21.9300   -9.5750 C.2     1  MOL1        0.2220
     13  O4         7.9830  -22.2350  -10.4890 O.2     1  MOL1       -0.2750
     14  N7        10.3560  -19.0710   -8.4260 N.am    1  MOL1       -0.3460
     15  C8        11.6160  -18.6330   -8.9380 C.2     1  MOL1        0.2580
     16  O9        11.8170  -18.5900  -10.1810 O.2     1  MOL1       -0.2710
     17 C10        12.7090  -18.2090   -8.0020 C.3     1  MOL1        0.1670
     18 O11        13.5700  -17.2670   -8.6360 O.3     1  MOL1       -0.4800
     19 C12        14.7930  -16.8860   -8.0770 C.ar    1  MOL1        0.1660
     20 C13        15.9780  -17.6070   -8.3500 C.ar    1  MOL1        0.0120
     21 C21        17.1980  -17.1430   -7.8290 C.ar    1  MOL1       -0.0540
     22 C22        17.2350  -16.0120   -7.0130 C.ar    1  MOL1       -0.0580
     23 C23        16.0570  -15.3320   -6.7040 C.ar    1  MOL1       -0.0160
     24 C24        14.8260  -15.7660   -7.2300 C.ar    1  MOL1        0.1610
     25 C14        15.9690  -18.8670   -9.1860 C.3     1  MOL1        0.0280
     26 N15        16.9430  -19.8440   -8.6580 N.3     1  MOL1       -0.2870
     27 C16        17.2070  -20.9230   -9.6250 C.3     1  MOL1        0.0640
     28 C17        16.5750  -21.9750   -8.7340 C.3     1  MOL1        0.2720
     29 F18        17.4770  -22.9080   -8.2510 F       1  MOL1       -0.2040
     30 F19        15.4210  -22.5310   -9.2610 F       1  MOL1       -0.2040
     31 C20        16.3090  -20.8350   -7.7710 C.3     1  MOL1        0.0640
     32 O25        13.6200  -15.1110   -6.9420 O.3     1  MOL1       -0.4930
     33 C26        13.3800  -14.3440   -5.7670 C.3     1  MOL1        0.0780
@<TRIPOS>BOND
     1     3     2   ar
     2     3     4   ar
     3     2     1   ar
     4    13    12    2
     5    16    15    2
     6    10    11    1
     7     4     5   ar
     8    27    28    1
     9    27    26    1
    10    12    11   am
    11    12     9    1
    12     1     8    1
    13     1     7   ar
    14     8     9    1
    15     8    14    1
    16    30    28    1
    17    25    26    1
    18    25    20    1
    19    15    14   am
    20    15    17    1
    21    28    29    1
    22    28    31    1
    23    26    31    1
    24    18    19    1
    25    18    17    1
    26     5     7   ar
    27     5     6    1
    28    20    19   ar
    29    20    21   ar
    30    19    24   ar
    31    21    22   ar
    32    24    32    1
    33    24    23   ar
    34    22    23   ar
    35    32    33    1
