@<TRIPOS>MOLECULE
L3024_0_out.pdbqt
 33 35 0 0 0
SMALL
GASTEIGER

@<TRIPOS>ATOM
      1 C27        15.1310  -18.0150   -0.6710 C.ar    1  MOL1       -0.0240
      2 C28        15.1260  -18.8510   -1.8030 C.ar    1  MOL1       -0.0570
      3 C29        15.4190  -20.2140   -1.6770 C.ar    1  MOL1       -0.0610
      4 C30        15.7200  -20.7540   -0.4230 C.ar    1  MOL1       -0.0480
      5 C31        15.7250  -19.9330    0.7110 C.ar    1  MOL1        0.0180
      6 Br32       16.1150  -20.6780    2.4290 Br      1  MOL1       -0.0510
      7 C33        15.4380  -18.5700    0.5880 C.ar    1  MOL1       -0.0430
      8  C6        14.8850  -16.5300   -0.8270 C.3     1  MOL1        0.0630
      9  C5        14.0560  -16.0060    0.3600 C.3     1  MOL1        0.0510
     10  C1        16.8920  -13.7510    1.7900 C.3     1  MOL1        0.0060
     11  N2        16.0530  -14.5130    0.8750 N.am    1  MOL1       -0.3590
     12  C3        14.9060  -15.2390    1.3300 C.2     1  MOL1        0.2220
     13  O4        14.6000  -15.2360    2.5540 O.2     1  MOL1       -0.2750
     14  N7        14.2010  -16.2580   -2.0950 N.am    1  MOL1       -0.3460
     15  C8        14.3760  -15.0370   -2.8170 C.2     1  MOL1        0.2580
     16  O9        15.1330  -14.1370   -2.3680 O.2     1  MOL1       -0.2710
     17 C10        13.6720  -14.8210   -4.1240 C.3     1  MOL1        0.1670
     18 O11        14.5150  -15.1920   -5.2120 O.3     1  MOL1       -0.4800
     19 C12        14.5390  -16.4940   -5.7210 C.ar    1  MOL1        0.1660
     20 C13        15.5910  -17.3830   -5.4040 C.ar    1  MOL1        0.0120
     21 C21        15.5340  -18.7060   -5.8730 C.ar    1  MOL1       -0.0540
     22 C22        14.4780  -19.1260   -6.6820 C.ar    1  MOL1       -0.0580
     23 C23        13.4670  -18.2330   -7.0340 C.ar    1  MOL1       -0.0160
     24 C24        13.4920  -16.9080   -6.5600 C.ar    1  MOL1        0.1610
     25 C14        16.7790  -16.9490   -4.5740 C.3     1  MOL1        0.0280
     26 N15        17.7990  -16.3090   -5.4300 N.3     1  MOL1       -0.2870
     27 C16        19.1610  -16.5570   -4.9270 C.3     1  MOL1        0.0640
     28 C17        19.3850  -15.0950   -4.5980 C.3     1  MOL1        0.2720
     29 F18        20.3550  -14.4910   -5.3810 F       1  MOL1       -0.2040
     30 F19        19.5210  -14.8420   -3.2430 F       1  MOL1       -0.2040
     31 C20        17.9750  -14.8810   -5.1120 C.3     1  MOL1        0.0640
     32 O25        12.4950  -15.9790   -6.8920 O.3     1  MOL1       -0.4930
     33 C26        11.0980  -16.2470   -6.8530 C.3     1  MOL1        0.0780
@<TRIPOS>BOND
     1    23    22   ar
     2    23    24   ar
     3    32    33    1
     4    32    24    1
     5    22    21   ar
     6    24    19   ar
     7    21    20   ar
     8    19    20   ar
     9    19    18    1
    10    26    31    1
    11    26    27    1
    12    26    25    1
    13    20    25    1
    14    29    28    1
    15    18    17    1
    16    31    28    1
    17    27    28    1
    18    28    30    1
    19    17    15    1
    20    15    16    2
    21    15    14   am
    22    14     8    1
    23     2     3   ar
    24     2     1   ar
    25     3     4   ar
    26     8     1    1
    27     8     9    1
    28     1     7   ar
    29     4     5   ar
    30     9    12    1
    31     7     5   ar
    32     5     6    1
    33    11    12   am
    34    11    10    1
    35    12    13    2
