@<TRIPOS>MOLECULE
L3024_0_out.pdbqt
 33 35 0 0 0
SMALL
GASTEIGER

@<TRIPOS>ATOM
      1 C27         4.1910  -14.7780  -10.1550 C.ar    1  MOL1       -0.0240
      2 C28         2.8810  -14.3500  -10.4390 C.ar    1  MOL1       -0.0570
      3 C29         1.9030  -14.3520   -9.4390 C.ar    1  MOL1       -0.0610
      4 C30         2.2220  -14.7810   -8.1470 C.ar    1  MOL1       -0.0480
      5 C31         3.5220  -15.2060   -7.8510 C.ar    1  MOL1        0.0180
      6 Br32        3.9630  -15.7720   -6.0770 Br      1  MOL1       -0.0510
      7 C33         4.5010  -15.2110   -8.8500 C.ar    1  MOL1       -0.0430
      8  C6         5.2230  -14.8420  -11.2600 C.3     1  MOL1        0.0630
      9  C5         4.6340  -14.2780  -12.5660 C.3     1  MOL1        0.0510
     10  C1         3.4400  -10.5880  -12.9320 C.3     1  MOL1        0.0060
     11  N2         3.4660  -12.0440  -12.9270 N.am    1  MOL1       -0.3590
     12  C3         4.6430  -12.7770  -12.5710 C.2     1  MOL1        0.2220
     13  O4         5.6980  -12.1630  -12.2540 O.2     1  MOL1       -0.2750
     14  N7         5.6770  -16.2230  -11.4520 N.am    1  MOL1       -0.3460
     15  C8         6.8870  -16.7220  -10.8770 C.2     1  MOL1        0.2580
     16  O9         7.6180  -15.9680  -10.1810 O.2     1  MOL1       -0.2710
     17 C10         7.2920  -18.1510  -11.0840 C.3     1  MOL1        0.1670
     18 O11         7.3790  -18.8310   -9.8340 O.3     1  MOL1       -0.4800
     19 C12         7.9170  -20.1160   -9.7250 C.ar    1  MOL1        0.1660
     20 C13         9.3100  -20.3360   -9.8150 C.ar    1  MOL1        0.0120
     21 C21         9.8140  -21.6330   -9.6210 C.ar    1  MOL1       -0.0540
     22 C22         8.9470  -22.7010   -9.3890 C.ar    1  MOL1       -0.0580
     23 C23         7.5690  -22.4900   -9.3510 C.ar    1  MOL1       -0.0160
     24 C24         7.0420  -21.1960   -9.5220 C.ar    1  MOL1        0.1610
     25 C14        10.2760  -19.2110  -10.1180 C.3     1  MOL1        0.0280
     26 N15        11.1350  -18.9410   -8.9470 N.3     1  MOL1       -0.2870
     27 C16        10.3370  -18.6430   -7.7460 C.3     1  MOL1        0.0640
     28 C17        10.8290  -17.2110   -7.6840 C.3     1  MOL1        0.2720
     29 F18        11.6180  -16.9420   -6.5790 F       1  MOL1       -0.2040
     30 F19         9.8370  -16.2700   -7.9070 F       1  MOL1       -0.2040
     31 C20        11.6260  -17.5520   -8.9270 C.3     1  MOL1        0.0640
     32 O25         5.6640  -20.9420   -9.4910 O.3     1  MOL1       -0.4930
     33 C26         4.6780  -21.7690  -10.1010 C.3     1  MOL1        0.0780
@<TRIPOS>BOND
     1    10    11    1
     2    11    12   am
     3    12     9    1
     4    12    13    2
     5     9     8    1
     6    14     8    1
     7    14    15   am
     8     8     1    1
     9    17    15    1
    10    17    18    1
    11    15    16    2
    12     2     1   ar
    13     2     3   ar
    14     1     7   ar
    15    25    20    1
    16    25    26    1
    17    33    32    1
    18    18    19    1
    19    20    19   ar
    20    20    21   ar
    21    19    24   ar
    22    21    22   ar
    23    24    32    1
    24    24    23   ar
    25     3     4   ar
    26    22    23   ar
    27    26    31    1
    28    26    27    1
    29    31    28    1
    30     7     5   ar
    31     4     5   ar
    32    30    28    1
    33     5     6    1
    34    27    28    1
    35    28    29    1
