@<TRIPOS>MOLECULE
L3024_0_out.pdbqt
 33 35 0 0 0
SMALL
GASTEIGER

@<TRIPOS>ATOM
      1 C27         7.0580  -19.3730   -9.8860 C.ar    1  MOL1       -0.0240
      2 C28         7.0400  -20.3630  -10.8850 C.ar    1  MOL1       -0.0570
      3 C29         6.3550  -21.5650  -10.6780 C.ar    1  MOL1       -0.0610
      4 C30         5.6840  -21.7920   -9.4740 C.ar    1  MOL1       -0.0480
      5 C31         5.6910  -20.8140   -8.4720 C.ar    1  MOL1        0.0180
      6 Br32        4.7530  -21.1160   -6.8330 Br      1  MOL1       -0.0510
      7 C33         6.3790  -19.6130   -8.6740 C.ar    1  MOL1       -0.0430
      8  C6         7.8600  -18.1070  -10.0890 C.3     1  MOL1        0.0630
      9  C5         7.9970  -17.8040  -11.5920 C.3     1  MOL1        0.0510
     10  C1         5.4210  -14.8830  -11.5270 C.3     1  MOL1        0.0060
     11  N2         6.4030  -15.8750  -11.1150 N.am    1  MOL1       -0.3590
     12  C3         6.9780  -16.7990  -12.0460 C.2     1  MOL1        0.2220
     13  O4         6.6320  -16.7720  -13.2580 O.2     1  MOL1       -0.2750
     14  N7         9.1820  -18.2370   -9.4660 N.am    1  MOL1       -0.3460
     15  C8        10.2960  -18.8250  -10.1420 C.2     1  MOL1        0.2580
     16  O9        10.1660  -19.2670  -11.3140 O.2     1  MOL1       -0.2710
     17 C10        11.6330  -18.9100   -9.4680 C.3     1  MOL1        0.1670
     18 O11        11.4750  -19.1990   -8.0810 O.3     1  MOL1       -0.4800
     19 C12        12.5370  -19.6500   -7.2930 C.ar    1  MOL1        0.1660
     20 C13        13.5450  -18.7650   -6.8470 C.ar    1  MOL1        0.0120
     21 C21        14.5490  -19.2460   -5.9910 C.ar    1  MOL1       -0.0540
     22 C22        14.5820  -20.5910   -5.6230 C.ar    1  MOL1       -0.0580
     23 C23        13.6160  -21.4730   -6.1040 C.ar    1  MOL1       -0.0160
     24 C24        12.5880  -21.0110   -6.9470 C.ar    1  MOL1        0.1610
     25 C14        13.5720  -17.3120   -7.2670 C.3     1  MOL1        0.0280
     26 N15        14.9270  -16.7510   -7.0950 N.3     1  MOL1       -0.2870
     27 C16        14.8840  -15.3980   -6.5130 C.3     1  MOL1        0.0640
     28 C17        15.4310  -14.7590   -7.7730 C.3     1  MOL1        0.2720
     29 F18        16.6920  -14.2110   -7.6160 F       1  MOL1       -0.2040
     30 F19        14.5300  -13.9200   -8.4090 F       1  MOL1       -0.2040
     31 C20        15.4490  -16.1640   -8.3420 C.3     1  MOL1        0.0640
     32 O25        11.5980  -21.8650   -7.4530 O.3     1  MOL1       -0.4930
     33 C26        11.8530  -22.9860   -8.2930 C.3     1  MOL1        0.0780
@<TRIPOS>BOND
     1    13    12    2
     2    12     9    1
     3    12    11   am
     4     9     8    1
     5    10    11    1
     6    16    15    2
     7     2     3   ar
     8     2     1   ar
     9     3     4   ar
    10    15    17    1
    11    15    14   am
    12     8     1    1
    13     8    14    1
    14     1     7   ar
    15     4     5   ar
    16    17    18    1
    17     7     5   ar
    18     5     6    1
    19    30    28    1
    20    31    28    1
    21    31    26    1
    22    33    32    1
    23    18    19    1
    24    28    29    1
    25    28    27    1
    26    32    24    1
    27    19    24   ar
    28    19    20   ar
    29    25    26    1
    30    25    20    1
    31    26    27    1
    32    24    23   ar
    33    20    21   ar
    34    23    22   ar
    35    21    22   ar
