@<TRIPOS>MOLECULE
L3024_0_out.pdbqt
 33 35 0 0 0
SMALL
GASTEIGER

@<TRIPOS>ATOM
      1 C27        12.9890  -19.6380   -7.2090 C.ar    1  MOL1       -0.0240
      2 C28        13.9450  -19.8000   -6.1890 C.ar    1  MOL1       -0.0570
      3 C29        14.3150  -21.0810   -5.7640 C.ar    1  MOL1       -0.0610
      4 C30        13.7360  -22.2090   -6.3500 C.ar    1  MOL1       -0.0480
      5 C31        12.7860  -22.0620   -7.3670 C.ar    1  MOL1        0.0180
      6 Br32       12.0100  -23.6080   -8.1840 Br      1  MOL1       -0.0510
      7 C33        12.4100  -20.7840   -7.7910 C.ar    1  MOL1       -0.0430
      8  C6        12.5410  -18.2500   -7.6130 C.3     1  MOL1        0.0630
      9  C5        11.8420  -18.3000   -8.9840 C.3     1  MOL1        0.0510
     10  C1         8.0850  -17.7060   -9.8270 C.3     1  MOL1        0.0060
     11  N2         9.4630  -18.1720   -9.8860 N.am    1  MOL1       -0.3590
     12  C3        10.4300  -17.7940   -8.9000 C.2     1  MOL1        0.2220
     13  O4        10.1010  -17.0340   -7.9500 O.2     1  MOL1       -0.2750
     14  N7        13.6880  -17.3370   -7.6510 N.am    1  MOL1       -0.3460
     15  C8        13.6920  -16.0780   -6.9750 C.2     1  MOL1        0.2580
     16  O9        12.6820  -15.7060   -6.3200 O.2     1  MOL1       -0.2710
     17 C10        14.9010  -15.1940   -7.0250 C.3     1  MOL1        0.1670
     18 O11        15.5890  -15.2170   -5.7770 O.3     1  MOL1       -0.4800
     19 C12        15.9630  -16.4130   -5.1580 C.ar    1  MOL1        0.1660
     20 C13        16.9370  -17.2600   -5.7340 C.ar    1  MOL1        0.0120
     21 C21        17.3400  -18.4130   -5.0390 C.ar    1  MOL1       -0.0540
     22 C22        16.7520  -18.7450   -3.8180 C.ar    1  MOL1       -0.0580
     23 C23        15.7540  -17.9350   -3.2770 C.ar    1  MOL1       -0.0160
     24 C24        15.3490  -16.7640   -3.9450 C.ar    1  MOL1        0.1610
     25 C14        17.5580  -16.9610   -7.0800 C.3     1  MOL1        0.0280
     26 N15        17.1600  -17.9820   -8.0710 N.3     1  MOL1       -0.2870
     27 C16        18.3320  -18.6090   -8.7040 C.3     1  MOL1        0.0640
     28 C17        18.0010  -18.0260  -10.0640 C.3     1  MOL1        0.2720
     29 F18        17.6470  -18.9770  -11.0040 F       1  MOL1       -0.2040
     30 F19        18.9330  -17.1070  -10.5180 F       1  MOL1       -0.2040
     31 C20        16.8130  -17.3870   -9.3730 C.3     1  MOL1        0.0640
     32 O25        14.3490  -15.9230   -3.4350 O.3     1  MOL1       -0.4930
     33 C26        14.4030  -15.2880   -2.1620 C.3     1  MOL1        0.0780
@<TRIPOS>BOND
     1    29    28    1
     2    30    28    1
     3    28    31    1
     4    28    27    1
     5    11    10    1
     6    11    12   am
     7    31    26    1
     8     9    12    1
     9     9     8    1
    10    12    13    2
    11    27    26    1
    12     6     5    1
    13    26    25    1
    14     7     5   ar
    15     7     1   ar
    16    14     8    1
    17    14    15   am
    18     8     1    1
    19     5     4   ar
    20     1     2   ar
    21    25    20    1
    22    17    15    1
    23    17    18    1
    24    15    16    2
    25     4     3   ar
    26     2     3   ar
    27    18    19    1
    28    20    19   ar
    29    20    21   ar
    30    19    24   ar
    31    21    22   ar
    32    24    32    1
    33    24    23   ar
    34    22    23   ar
    35    32    33    1
