@<TRIPOS>MOLECULE
L3024_0_out.pdbqt
 33 35 0 0 0
SMALL
GASTEIGER

@<TRIPOS>ATOM
      1 C27         6.8220  -19.5120   -9.7950 C.ar    1  MOL1       -0.0240
      2 C28         6.8980  -20.3920  -10.8900 C.ar    1  MOL1       -0.0570
      3 C29         6.2350  -21.6240  -10.8550 C.ar    1  MOL1       -0.0610
      4 C30         5.4910  -21.9880   -9.7290 C.ar    1  MOL1       -0.0480
      5 C31         5.4050  -21.1210   -8.6340 C.ar    1  MOL1        0.0180
      6 Br32        4.3690  -21.6110   -7.1030 Br      1  MOL1       -0.0510
      7 C33         6.0710  -19.8910   -8.6630 C.ar    1  MOL1       -0.0430
      8  C6         7.6000  -18.2140   -9.8110 C.3     1  MOL1        0.0630
      9  C5         7.9680  -17.8380  -11.2580 C.3     1  MOL1        0.0510
     10  C1         5.5110  -14.8280  -11.5270 C.3     1  MOL1        0.0060
     11  N2         6.4400  -15.8170  -11.0000 N.am    1  MOL1       -0.3590
     12  C3         7.0050  -16.8390  -11.8290 C.2     1  MOL1        0.2220
     13  O4         6.6970  -16.9040  -13.0500 O.2     1  MOL1       -0.2750
     14  N7         8.8070  -18.3350   -8.9860 N.am    1  MOL1       -0.3460
     15  C8         9.3780  -17.2250   -8.2900 C.2     1  MOL1        0.2580
     16  O9         8.8530  -16.0830   -8.3770 O.2     1  MOL1       -0.2710
     17 C10        10.5980  -17.4090   -7.4390 C.3     1  MOL1        0.1670
     18 O11        11.5580  -18.2200   -8.1120 O.3     1  MOL1       -0.4800
     19 C12        12.3550  -19.1440   -7.4320 C.ar    1  MOL1        0.1660
     20 C13        13.6480  -18.8000   -6.9760 C.ar    1  MOL1        0.0120
     21 C21        14.3830  -19.7350   -6.2280 C.ar    1  MOL1       -0.0540
     22 C22        13.8650  -21.0060   -5.9780 C.ar    1  MOL1       -0.0580
     23 C23        12.6100  -21.3610   -6.4720 C.ar    1  MOL1       -0.0160
     24 C24        11.8470  -20.4340   -7.2070 C.ar    1  MOL1        0.1610
     25 C14        14.2650  -17.4510   -7.2740 C.3     1  MOL1        0.0280
     26 N15        13.9570  -16.4930   -6.1920 N.3     1  MOL1       -0.2870
     27 C16        13.0390  -15.4360   -6.6490 C.3     1  MOL1        0.0640
     28 C17        14.0890  -14.3540   -6.4900 C.3     1  MOL1        0.2720
     29 F18        13.7990  -13.4400   -5.4920 F       1  MOL1       -0.2040
     30 F19        14.4770  -13.7740   -7.6870 F       1  MOL1       -0.2040
     31 C20        15.0080  -15.4730   -6.0370 C.3     1  MOL1        0.0640
     32 O25        10.5810  -20.7520   -7.7210 O.3     1  MOL1       -0.4930
     33 C26        10.3590  -21.5530   -8.8770 C.3     1  MOL1        0.0780
@<TRIPOS>BOND
     1    13    12    2
     2    12     9    1
     3    12    11   am
     4    10    11    1
     5     9     8    1
     6     2     3   ar
     7     2     1   ar
     8     3     4   ar
     9     8     1    1
    10     8    14    1
    11     1     7   ar
    12     4     5   ar
    13    14    15   am
    14    33    32    1
    15     7     5   ar
    16     5     6    1
    17    16    15    2
    18    15    17    1
    19    18    17    1
    20    18    19    1
    21    32    24    1
    22    30    28    1
    23    19    24   ar
    24    19    20   ar
    25    25    20    1
    26    25    26    1
    27    24    23   ar
    28    20    21   ar
    29    27    28    1
    30    27    26    1
    31    28    31    1
    32    28    29    1
    33    23    22   ar
    34    21    22   ar
    35    26    31    1
