@<TRIPOS>MOLECULE
L3024_0_out.pdbqt
 33 35 0 0 0
SMALL
GASTEIGER

@<TRIPOS>ATOM
      1 C27         9.7360  -18.5780   -9.3600 C.ar    1  MOL1       -0.0240
      2 C28         9.5730  -18.6520  -10.7550 C.ar    1  MOL1       -0.0570
      3 C29         8.3910  -18.2020  -11.3540 C.ar    1  MOL1       -0.0610
      4 C30         7.3630  -17.6750  -10.5680 C.ar    1  MOL1       -0.0480
      5 C31         7.5140  -17.5920   -9.1790 C.ar    1  MOL1        0.0180
      6 Br32        6.1150  -16.8500   -8.1060 Br      1  MOL1       -0.0510
      7 C33         8.6920  -18.0460   -8.5760 C.ar    1  MOL1       -0.0430
      8  C6        10.9870  -19.1330   -8.7130 C.3     1  MOL1        0.0630
      9  C5        10.6260  -20.3160   -7.7970 C.3     1  MOL1        0.0510
     10  C1        13.6580  -21.5290   -5.6730 C.3     1  MOL1        0.0060
     11  N2        12.4770  -20.8010   -6.1170 N.am    1  MOL1       -0.3590
     12  C3        11.8490  -21.0770   -7.3730 C.2     1  MOL1        0.2220
     13  O4        12.3200  -21.9670   -8.1340 O.2     1  MOL1       -0.2750
     14  N7        11.6750  -18.0840   -7.9540 N.am    1  MOL1       -0.3460
     15  C8        13.0460  -17.7460   -8.1770 C.2     1  MOL1        0.2580
     16  O9        13.7180  -18.3620   -9.0460 O.2     1  MOL1       -0.2710
     17 C10        13.6940  -16.6460   -7.3900 C.3     1  MOL1        0.1670
     18 O11        14.2700  -17.1620   -6.1920 O.3     1  MOL1       -0.4800
     19 C12        15.4330  -16.6220   -5.6360 C.ar    1  MOL1        0.1660
     20 C13        16.7110  -17.0000   -6.1070 C.ar    1  MOL1        0.0120
     21 C21        17.8500  -16.3730   -5.5740 C.ar    1  MOL1       -0.0540
     22 C22        17.7270  -15.4250   -4.5590 C.ar    1  MOL1       -0.0580
     23 C23        16.4670  -15.0910   -4.0600 C.ar    1  MOL1       -0.0160
     24 C24        15.3100  -15.6910   -4.5930 C.ar    1  MOL1        0.1610
     25 C14        16.8870  -18.0620   -7.1700 C.3     1  MOL1        0.0280
     26 N15        17.8440  -17.6080   -8.2000 N.3     1  MOL1       -0.2870
     27 C16        17.1770  -16.8140   -9.2460 C.3     1  MOL1        0.0640
     28 C17        17.4480  -17.8570  -10.3120 C.3     1  MOL1        0.2720
     29 F18        18.3280  -17.4330  -11.2930 F       1  MOL1       -0.2040
     30 F19        16.3030  -18.4590  -10.8070 F       1  MOL1       -0.2040
     31 C20        18.1150  -18.6500   -9.2050 C.3     1  MOL1        0.0640
     32 O25        14.0270  -15.3830   -4.1190 O.3     1  MOL1       -0.4930
     33 C26        13.7010  -14.2140   -3.3750 C.3     1  MOL1        0.0780
@<TRIPOS>BOND
     1     3     2   ar
     2     3     4   ar
     3    29    28    1
     4    30    28    1
     5     2     1   ar
     6     4     5   ar
     7    28    27    1
     8    28    31    1
     9     1     8    1
    10     1     7   ar
    11    27    26    1
    12    31    26    1
    13     5     7   ar
    14     5     6    1
    15    16    15    2
    16     8    14    1
    17     8     9    1
    18    26    25    1
    19    15    14   am
    20    15    17    1
    21    13    12    2
    22     9    12    1
    23    17    18    1
    24    12    11   am
    25    25    20    1
    26    18    19    1
    27    11    10    1
    28    20    19   ar
    29    20    21   ar
    30    19    24   ar
    31    21    22   ar
    32    24    32    1
    33    24    23   ar
    34    22    23   ar
    35    32    33    1
