@<TRIPOS>MOLECULE
L3024_0_out.pdbqt
 33 35 0 0 0
SMALL
GASTEIGER

@<TRIPOS>ATOM
      1 C27         8.9660  -20.7610   -9.7410 C.ar    1  MOL1       -0.0240
      2 C28         7.6160  -21.1370   -9.8590 C.ar    1  MOL1       -0.0570
      3 C29         7.2520  -22.4880   -9.8380 C.ar    1  MOL1       -0.0610
      4 C30         8.2320  -23.4750   -9.7000 C.ar    1  MOL1       -0.0480
      5 C31         9.5780  -23.1150   -9.5780 C.ar    1  MOL1        0.0180
      6 Br32       10.9160  -24.4670   -9.3660 Br      1  MOL1       -0.0510
      7 C33         9.9460  -21.7660   -9.6040 C.ar    1  MOL1       -0.0430
      8  C6         9.3580  -19.3030   -9.8370 C.3     1  MOL1        0.0630
      9  C5         8.6370  -18.6400  -11.0250 C.3     1  MOL1        0.0510
     10  C1         6.2310  -15.5790  -11.1340 C.3     1  MOL1        0.0060
     11  N2         7.0490  -16.7150  -11.5340 N.am    1  MOL1       -0.3590
     12  C3         7.8110  -17.4670  -10.5830 C.2     1  MOL1        0.2220
     13  O4         7.7910  -17.1490   -9.3630 O.2     1  MOL1       -0.2750
     14  N7        10.8120  -19.1750   -9.9800 N.am    1  MOL1       -0.3460
     15  C8        11.5810  -18.2410   -9.2190 C.2     1  MOL1        0.2580
     16  O9        11.0160  -17.4770   -8.3930 O.2     1  MOL1       -0.2710
     17 C10        13.0700  -18.1710   -9.3860 C.3     1  MOL1        0.1670
     18 O11        13.6970  -17.8680   -8.1420 O.3     1  MOL1       -0.4800
     19 C12        14.6730  -16.8750   -8.0260 C.ar    1  MOL1        0.1660
     20 C13        16.0120  -17.1180   -8.4090 C.ar    1  MOL1        0.0120
     21 C21        16.9430  -16.0670   -8.3500 C.ar    1  MOL1       -0.0540
     22 C22        16.5650  -14.8120   -7.8740 C.ar    1  MOL1       -0.0580
     23 C23        15.2550  -14.5890   -7.4480 C.ar    1  MOL1       -0.0160
     24 C24        14.3000  -15.6200   -7.5170 C.ar    1  MOL1        0.1610
     25 C14        16.4710  -18.4800   -8.8810 C.3     1  MOL1        0.0280
     26 N15        17.7870  -18.8120   -8.2950 N.3     1  MOL1       -0.2870
     27 C16        18.3050  -20.0880   -8.8160 C.3     1  MOL1        0.0640
     28 C17        18.2040  -20.7650   -7.4630 C.3     1  MOL1        0.2720
     29 F18        19.4310  -21.0990   -6.9160 F       1  MOL1       -0.2040
     30 F19        17.2730  -21.7900   -7.4200 F       1  MOL1       -0.2040
     31 C20        17.6620  -19.4380   -6.9680 C.3     1  MOL1        0.0640
     32 O25        12.9740  -15.4370   -7.0990 O.3     1  MOL1       -0.4930
     33 C26        12.5810  -15.1810   -5.7550 C.3     1  MOL1        0.0780
@<TRIPOS>BOND
     1    11    10    1
     2    11    12   am
     3     9    12    1
     4     9     8    1
     5    12    13    2
     6    14     8    1
     7    14    15   am
     8     2     3   ar
     9     2     1   ar
    10     3     4   ar
    11     8     1    1
    12     1     7   ar
    13     4     5   ar
    14     7     5   ar
    15     5     6    1
    16    17    15    1
    17    17    18    1
    18    15    16    2
    19    25    20    1
    20    25    26    1
    21    27    26    1
    22    27    28    1
    23    20    21   ar
    24    20    19   ar
    25    21    22   ar
    26    26    31    1
    27    18    19    1
    28    19    24   ar
    29    22    23   ar
    30    24    23   ar
    31    24    32    1
    32    28    30    1
    33    28    31    1
    34    28    29    1
    35    32    33    1
