@<TRIPOS>MOLECULE
L3024_0_out.pdbqt
 33 35 0 0 0
SMALL
GASTEIGER

@<TRIPOS>ATOM
      1 C27         9.3610  -17.9690   -8.9860 C.ar    1  MOL1       -0.0240
      2 C28         8.8700  -16.8620   -8.2700 C.ar    1  MOL1       -0.0570
      3 C29         7.9060  -16.0220   -8.8390 C.ar    1  MOL1       -0.0610
      4 C30         7.4240  -16.2780  -10.1250 C.ar    1  MOL1       -0.0480
      5 C31         7.9020  -17.3780  -10.8470 C.ar    1  MOL1        0.0180
      6 Br32        7.2250  -17.7400  -12.6000 Br      1  MOL1       -0.0510
      7 C33         8.8690  -18.2170  -10.2840 C.ar    1  MOL1       -0.0430
      8  C6        10.4550  -18.8300   -8.3930 C.3     1  MOL1        0.0630
      9  C5         9.8390  -20.0220   -7.6390 C.3     1  MOL1        0.0510
     10  C1         7.0460  -22.0410   -9.4550 C.3     1  MOL1        0.0060
     11  N2         7.7360  -21.1320   -8.5510 N.am    1  MOL1       -0.3590
     12  C3         9.1580  -20.9750   -8.5790 C.2     1  MOL1        0.2220
     13  O4         9.8520  -21.6360   -9.3990 O.2     1  MOL1       -0.2750
     14  N7        11.2990  -18.0320   -7.4960 N.am    1  MOL1       -0.3460
     15  C8        12.6890  -17.8090   -7.7440 C.2     1  MOL1        0.2580
     16  O9        13.2420  -18.3110   -8.7590 O.2     1  MOL1       -0.2710
     17 C10        13.5000  -16.9640   -6.8090 C.3     1  MOL1        0.1670
     18 O11        14.8740  -17.3390   -6.8610 O.3     1  MOL1       -0.4800
     19 C12        15.5900  -17.6940   -5.7150 C.ar    1  MOL1        0.1660
     20 C13        16.0290  -19.0220   -5.5080 C.ar    1  MOL1        0.0120
     21 C21        16.8140  -19.3170   -4.3810 C.ar    1  MOL1       -0.0540
     22 C22        17.1160  -18.3230   -3.4500 C.ar    1  MOL1       -0.0580
     23 C23        16.6400  -17.0250   -3.6290 C.ar    1  MOL1       -0.0160
     24 C24        15.8690  -16.7010   -4.7610 C.ar    1  MOL1        0.1610
     25 C14        15.6760  -20.1360   -6.4690 C.3     1  MOL1        0.0280
     26 N15        14.8880  -21.1790   -5.7800 N.3     1  MOL1       -0.2870
     27 C16        14.6830  -22.3580   -6.6400 C.3     1  MOL1        0.0640
     28 C17        13.1870  -22.1290   -6.7200 C.3     1  MOL1        0.2720
     29 F18        12.4400  -23.1130   -6.0960 F       1  MOL1       -0.2040
     30 F19        12.7400  -21.8070   -7.9910 F       1  MOL1       -0.2040
     31 C20        13.4400  -20.9170   -5.8460 C.3     1  MOL1        0.0640
     32 O25        15.3700  -15.4080   -4.9780 O.3     1  MOL1       -0.4930
     33 C26        14.9500  -14.5230   -3.9460 C.3     1  MOL1        0.0780
@<TRIPOS>BOND
     1     6     5    1
     2     5     7   ar
     3     5     4   ar
     4     7     1   ar
     5     4     3   ar
     6    10    11    1
     7    13    12    2
     8     1     8    1
     9     1     2   ar
    10     3     2   ar
    11    16    15    2
    12    12    11   am
    13    12     9    1
    14     8     9    1
    15     8    14    1
    16    30    28    1
    17    15    14   am
    18    15    17    1
    19    18    17    1
    20    18    19    1
    21    28    27    1
    22    28    29    1
    23    28    31    1
    24    27    26    1
    25    25    26    1
    26    25    20    1
    27    31    26    1
    28    19    20   ar
    29    19    24   ar
    30    20    21   ar
    31    32    24    1
    32    32    33    1
    33    24    23   ar
    34    21    22   ar
    35    23    22   ar
