@<TRIPOS>MOLECULE
L3024_0_out.pdbqt
 33 35 0 0 0
SMALL
GASTEIGER

@<TRIPOS>ATOM
      1 C27        15.5170  -17.4720   -1.5580 C.ar    1  MOL1       -0.0240
      2 C28        16.4810  -16.7110   -2.2440 C.ar    1  MOL1       -0.0570
      3 C29        16.7200  -15.3810   -1.8820 C.ar    1  MOL1       -0.0610
      4 C30        16.0020  -14.7990   -0.8350 C.ar    1  MOL1       -0.0480
      5 C31        15.0420  -15.5460   -0.1420 C.ar    1  MOL1        0.0180
      6 Br32       14.0750  -14.7540    1.3060 Br      1  MOL1       -0.0510
      7 C33        14.7960  -16.8740   -0.5040 C.ar    1  MOL1       -0.0430
      8  C6        15.2120  -18.8870   -2.0020 C.3     1  MOL1        0.0630
      9  C5        15.6770  -19.8880   -0.9290 C.3     1  MOL1        0.0510
     10  C1        12.6390  -20.2880    1.4760 C.3     1  MOL1        0.0060
     11  N2        13.7780  -19.7310    0.7620 N.am    1  MOL1       -0.3590
     12  C3        14.5120  -20.4950   -0.2010 C.2     1  MOL1        0.2220
     13  O4        14.1820  -21.6870   -0.4470 O.2     1  MOL1       -0.2750
     14  N7        15.8620  -19.1670   -3.2870 N.am    1  MOL1       -0.3460
     15  C8        15.2840  -20.0290   -4.2690 C.2     1  MOL1        0.2580
     16  O9        14.1790  -20.5920   -4.0490 O.2     1  MOL1       -0.2710
     17 C10        15.9790  -20.2610   -5.5770 C.3     1  MOL1        0.1670
     18 O11        16.8630  -19.1820   -5.8710 O.3     1  MOL1       -0.4800
     19 C12        17.1800  -18.8190   -7.1830 C.ar    1  MOL1        0.1660
     20 C13        16.3460  -17.9490   -7.9230 C.ar    1  MOL1        0.0120
     21 C21        16.7440  -17.5480   -9.2090 C.ar    1  MOL1       -0.0540
     22 C22        17.9220  -18.0400   -9.7710 C.ar    1  MOL1       -0.0580
     23 C23        18.7170  -18.9380   -9.0590 C.ar    1  MOL1       -0.0160
     24 C24        18.3500  -19.3380   -7.7610 C.ar    1  MOL1        0.1610
     25 C14        15.0350  -17.4370   -7.3670 C.3     1  MOL1        0.0280
     26 N15        15.2050  -16.0780   -6.8150 N.3     1  MOL1       -0.2870
     27 C16        14.4870  -15.9180   -5.5390 C.3     1  MOL1        0.0640
     28 C17        13.5190  -14.9090   -6.1250 C.3     1  MOL1        0.2720
     29 F18        13.6560  -13.6370   -5.5990 F       1  MOL1       -0.2040
     30 F19        12.2090  -15.3580   -6.1760 F       1  MOL1       -0.2040
     31 C20        14.2750  -15.1110   -7.4240 C.3     1  MOL1        0.0640
     32 O25        19.1210  -20.2390   -7.0130 O.3     1  MOL1       -0.4930
     33 C26        20.2690  -20.9210   -7.5060 C.3     1  MOL1        0.0780
@<TRIPOS>BOND
     1    22    21   ar
     2    22    23   ar
     3    21    20   ar
     4    23    24   ar
     5    20    25    1
     6    20    19   ar
     7    24    19   ar
     8    24    32    1
     9    33    32    1
    10    31    26    1
    11    31    28    1
    12    25    26    1
    13    19    18    1
    14    26    27    1
    15    30    28    1
    16    28    29    1
    17    28    27    1
    18    18    17    1
    19    17    15    1
    20    15    16    2
    21    15    14   am
    22    14     8    1
    23     2     3   ar
    24     2     1   ar
    25     8     1    1
    26     8     9    1
    27     3     4   ar
    28     1     7   ar
    29     9    12    1
    30     4     5   ar
    31     7     5   ar
    32    13    12    2
    33    12    11   am
    34     5     6    1
    35    11    10    1
