@<TRIPOS>MOLECULE
L3024_0_out.pdbqt
 33 35 0 0 0
SMALL
GASTEIGER

@<TRIPOS>ATOM
      1 C27         6.9930  -20.3760   -8.7610 C.ar    1  MOL1       -0.0240
      2 C28         6.0220  -21.3330   -8.4150 C.ar    1  MOL1       -0.0570
      3 C29         4.8490  -20.9470   -7.7580 C.ar    1  MOL1       -0.0610
      4 C30         4.6340  -19.6030   -7.4400 C.ar    1  MOL1       -0.0480
      5 C31         5.5900  -18.6390   -7.7820 C.ar    1  MOL1        0.0180
      6 Br32        5.2840  -16.7970   -7.3660 Br      1  MOL1       -0.0510
      7 C33         6.7660  -19.0230   -8.4340 C.ar    1  MOL1       -0.0430
      8  C6         8.2900  -20.8110   -9.4060 C.3     1  MOL1        0.0630
      9  C5         8.4360  -22.3410   -9.3160 C.3     1  MOL1        0.0510
     10  C1        10.8450  -24.6580  -11.3170 C.3     1  MOL1        0.0060
     11  N2        10.0110  -24.1070  -10.2580 N.am    1  MOL1       -0.3590
     12  C3         9.2960  -22.8780  -10.4240 C.2     1  MOL1        0.2220
     13  O4         9.3810  -22.2380  -11.5070 O.2     1  MOL1       -0.2750
     14  N7         9.4270  -20.1460   -8.7610 N.am    1  MOL1       -0.3460
     15  C8        10.3150  -19.2790   -9.4710 C.2     1  MOL1        0.2580
     16  O9        10.1460  -19.0660  -10.7010 O.2     1  MOL1       -0.2710
     17 C10        11.4460  -18.6030   -8.7570 C.3     1  MOL1        0.1670
     18 O11        12.6150  -19.4190   -8.7880 O.3     1  MOL1       -0.4800
     19 C12        13.2850  -19.8000   -7.6220 C.ar    1  MOL1        0.1660
     20 C13        14.2140  -18.9360   -6.9980 C.ar    1  MOL1        0.0120
     21 C21        14.8050  -19.3270   -5.7840 C.ar    1  MOL1       -0.0540
     22 C22        14.5160  -20.5720   -5.2250 C.ar    1  MOL1       -0.0580
     23 C23        13.6370  -21.4430   -5.8690 C.ar    1  MOL1       -0.0160
     24 C24        13.0180  -21.0650   -7.0750 C.ar    1  MOL1        0.1610
     25 C14        14.5920  -17.6020   -7.6020 C.3     1  MOL1        0.0280
     26 N15        15.5010  -16.8660   -6.6990 N.3     1  MOL1       -0.2870
     27 C16        15.3400  -15.4090   -6.8390 C.3     1  MOL1        0.0640
     28 C17        16.7350  -15.2360   -7.4060 C.3     1  MOL1        0.2720
     29 F18        17.5890  -14.5290   -6.5760 F       1  MOL1       -0.2040
     30 F19        16.7520  -14.8080   -8.7240 F       1  MOL1       -0.2040
     31 C20        16.8580  -16.7400   -7.2590 C.3     1  MOL1        0.0640
     32 O25        12.1290  -21.9120   -7.7530 O.3     1  MOL1       -0.4930
     33 C26        12.1870  -23.3340   -7.7200 C.3     1  MOL1        0.0780
@<TRIPOS>BOND
     1    13    12    2
     2    10    11    1
     3    16    15    2
     4    12    11   am
     5    12     9    1
     6    15    14   am
     7    15    17    1
     8     8     9    1
     9     8     1    1
    10     8    14    1
    11    18    17    1
    12    18    19    1
    13     1     7   ar
    14     1     2   ar
    15    30    28    1
    16     7     5   ar
    17     2     3   ar
    18     5     4   ar
    19     5     6    1
    20     3     4   ar
    21    32    33    1
    22    32    24    1
    23    19    24   ar
    24    19    20   ar
    25    25    20    1
    26    25    26    1
    27    28    31    1
    28    28    27    1
    29    28    29    1
    30    31    26    1
    31    24    23   ar
    32    20    21   ar
    33    27    26    1
    34    23    22   ar
    35    21    22   ar
