@<TRIPOS>MOLECULE
L3024_0_out.pdbqt
 33 35 0 0 0
SMALL
GASTEIGER

@<TRIPOS>ATOM
      1 C27        15.9800  -18.5010   -7.9170 C.ar    1  MOL1       -0.0240
      2 C28        16.0970  -17.8090   -9.1360 C.ar    1  MOL1       -0.0570
      3 C29        17.2860  -17.8670   -9.8720 C.ar    1  MOL1       -0.0610
      4 C30        18.3680  -18.6140   -9.3980 C.ar    1  MOL1       -0.0480
      5 C31        18.2640  -19.3090   -8.1880 C.ar    1  MOL1        0.0180
      6 Br32       19.7380  -20.3490   -7.5510 Br      1  MOL1       -0.0510
      7 C33        17.0790  -19.2490   -7.4480 C.ar    1  MOL1       -0.0430
      8  C6        14.7170  -18.3740   -7.0930 C.3     1  MOL1        0.0630
      9  C5        15.0720  -18.0430   -5.6320 C.3     1  MOL1        0.0510
     10  C1        13.6840  -14.4120   -5.8820 C.3     1  MOL1        0.0060
     11  N2        13.9710  -15.8100   -6.1690 N.am    1  MOL1       -0.3590
     12  C3        14.8040  -16.6000   -5.3140 C.2     1  MOL1        0.2220
     13  O4        15.3170  -16.0880   -4.2820 O.2     1  MOL1       -0.2750
     14  N7        13.9360  -19.6130   -7.1660 N.am    1  MOL1       -0.3460
     15  C8        12.5070  -19.6230   -7.1760 C.2     1  MOL1        0.2580
     16  O9        11.8650  -18.5410   -7.1090 O.2     1  MOL1       -0.2710
     17 C10        11.7580  -20.9170   -7.2780 C.3     1  MOL1        0.1670
     18 O11        11.3520  -21.1530   -8.6240 O.3     1  MOL1       -0.4800
     19 C12        10.1370  -21.7700   -8.9350 C.ar    1  MOL1        0.1660
     20 C13         8.9140  -21.0670   -8.8390 C.ar    1  MOL1        0.0120
     21 C21         7.7250  -21.7010   -9.2370 C.ar    1  MOL1       -0.0540
     22 C22         7.7420  -23.0250   -9.6750 C.ar    1  MOL1       -0.0580
     23 C23         8.9430  -23.7340   -9.7210 C.ar    1  MOL1       -0.0160
     24 C24        10.1490  -23.1120   -9.3470 C.ar    1  MOL1        0.1610
     25 C14         8.8500  -19.6480   -8.3180 C.3     1  MOL1        0.0280
     26 N15         8.4950  -18.7140   -9.4060 N.3     1  MOL1       -0.2870
     27 C16         9.3150  -17.4920   -9.3600 C.3     1  MOL1        0.0640
     28 C17         8.1220  -16.6160   -9.0320 C.3     1  MOL1        0.2720
     29 F18         7.7950  -15.7230  -10.0380 F       1  MOL1       -0.2040
     30 F19         8.1800  -16.0450   -7.7720 F       1  MOL1       -0.2040
     31 C20         7.3140  -17.8980   -9.0760 C.3     1  MOL1        0.0640
     32 O25        11.3770  -23.7890   -9.3770 O.3     1  MOL1       -0.4930
     33 C26        11.9620  -24.4490   -8.2590 C.3     1  MOL1        0.0780
@<TRIPOS>BOND
     1    29    28    1
     2     3     4   ar
     3     3     2   ar
     4    23    22   ar
     5    23    24   ar
     6    22    21   ar
     7    26    27    1
     8    26    31    1
     9    26    25    1
    10     4     5   ar
    11    32    24    1
    12    32    33    1
    13    27    28    1
    14    24    19   ar
    15    21    20   ar
    16     2     1   ar
    17    31    28    1
    18    28    30    1
    19    19    20   ar
    20    19    18    1
    21    20    25    1
    22    18    17    1
    23     5     6    1
    24     5     7   ar
    25     1     7   ar
    26     1     8    1
    27    17    15    1
    28    15    14   am
    29    15    16    2
    30    14     8    1
    31     8     9    1
    32    11    10    1
    33    11    12   am
    34     9    12    1
    35    12    13    2
