@<TRIPOS>MOLECULE
L3024_0_out.pdbqt
 33 35 0 0 0
SMALL
GASTEIGER

@<TRIPOS>ATOM
      1 C27         6.9700  -19.3900   -8.3860 C.ar    1  MOL1       -0.0240
      2 C28         6.0580  -20.4390   -8.1700 C.ar    1  MOL1       -0.0570
      3 C29         4.7780  -20.1720   -7.6700 C.ar    1  MOL1       -0.0610
      4 C30         4.3970  -18.8590   -7.3810 C.ar    1  MOL1       -0.0480
      5 C31         5.2940  -17.8060   -7.5950 C.ar    1  MOL1        0.0180
      6 Br32        4.7640  -16.0060   -7.2210 Br      1  MOL1       -0.0510
      7 C33         6.5750  -18.0690   -8.0900 C.ar    1  MOL1       -0.0430
      8  C6         8.3750  -19.6930   -8.8580 C.3     1  MOL1        0.0630
      9  C5         8.6840  -21.1890   -8.6650 C.3     1  MOL1        0.0510
     10  C1        10.1330  -23.8130  -11.1530 C.3     1  MOL1        0.0060
     11  N2         9.6100  -23.1850   -9.9480 N.am    1  MOL1       -0.3590
     12  C3         9.2300  -21.8050   -9.9210 C.2     1  MOL1        0.2220
     13  O4         9.3500  -21.0950  -10.9570 O.2     1  MOL1       -0.2750
     14  N7         9.3450  -18.8680   -8.1300 N.am    1  MOL1       -0.3460
     15  C8        10.4890  -18.2890   -8.7620 C.2     1  MOL1        0.2580
     16  O9        10.7070  -18.4870   -9.9870 O.2     1  MOL1       -0.2710
     17 C10        11.4360  -17.4310   -7.9770 C.3     1  MOL1        0.1670
     18 O11        12.7250  -17.4260   -8.5850 O.3     1  MOL1       -0.4800
     19 C12        13.8950  -17.6150   -7.8430 C.ar    1  MOL1        0.1660
     20 C13        14.4330  -18.9070   -7.6440 C.ar    1  MOL1        0.0120
     21 C21        15.6530  -19.0430   -6.9610 C.ar    1  MOL1       -0.0540
     22 C22        16.3020  -17.9230   -6.4410 C.ar    1  MOL1       -0.0580
     23 C23        15.7430  -16.6540   -6.5950 C.ar    1  MOL1       -0.0160
     24 C24        14.5330  -16.4910   -7.2940 C.ar    1  MOL1        0.1610
     25 C14        13.7310  -20.1490   -8.1470 C.3     1  MOL1        0.0280
     26 N15        13.3110  -20.9980   -7.0130 N.3     1  MOL1       -0.2870
     27 C16        13.8900  -22.3490   -7.1040 C.3     1  MOL1        0.0640
     28 C17        12.5350  -22.9950   -7.3110 C.3     1  MOL1        0.2720
     29 F18        12.1420  -23.8100   -6.2630 F       1  MOL1       -0.2040
     30 F19        12.3780  -23.5740   -8.5610 F       1  MOL1       -0.2040
     31 C20        11.9780  -21.5880   -7.2250 C.3     1  MOL1        0.0640
     32 O25        13.9370  -15.2330   -7.4700 O.3     1  MOL1       -0.4930
     33 C26        14.6220  -14.0760   -7.9380 C.3     1  MOL1        0.0780
@<TRIPOS>BOND
     1    10    11    1
     2    13    12    2
     3    16    15    2
     4    11    12   am
     5    12     9    1
     6     8     9    1
     7     8     1    1
     8     8    14    1
     9    15    14   am
    10    15    17    1
    11    18    17    1
    12    18    19    1
    13    30    28    1
    14     1     2   ar
    15     1     7   ar
    16     2     3   ar
    17    25    20    1
    18    25    26    1
    19     7     5   ar
    20    33    32    1
    21    19    20   ar
    22    19    24   ar
    23     3     4   ar
    24    20    21   ar
    25     5     4   ar
    26     5     6    1
    27    32    24    1
    28    28    31    1
    29    28    27    1
    30    28    29    1
    31    24    23   ar
    32    31    26    1
    33    27    26    1
    34    21    22   ar
    35    23    22   ar
