@<TRIPOS>MOLECULE
L3024_0_out.pdbqt
 33 35 0 0 0
SMALL
GASTEIGER

@<TRIPOS>ATOM
      1 C27         6.8150  -18.0130   -8.4140 C.ar    1  MOL1       -0.0240
      2 C28         6.2010  -19.2780   -8.3710 C.ar    1  MOL1       -0.0570
      3 C29         4.9750  -19.4470   -7.7200 C.ar    1  MOL1       -0.0610
      4 C30         4.3500  -18.3580   -7.1070 C.ar    1  MOL1       -0.0480
      5 C31         4.9480  -17.0930   -7.1450 C.ar    1  MOL1        0.0180
      6 Br32        4.0810  -15.5980   -6.3250 Br      1  MOL1       -0.0510
      7 C33         6.1770  -16.9210   -7.7910 C.ar    1  MOL1       -0.0430
      8  C6         8.1760  -17.8530   -9.0570 C.3     1  MOL1        0.0630
      9  C5         8.1040  -18.2360  -10.5460 C.3     1  MOL1        0.0510
     10  C1         9.2900  -21.9280  -10.9210 C.3     1  MOL1        0.0060
     11  N2         8.4810  -20.7540  -10.6270 N.am    1  MOL1       -0.3590
     12  C3         8.9670  -19.4270  -10.8500 C.2     1  MOL1        0.2220
     13  O4        10.1290  -19.2480  -11.3090 O.2     1  MOL1       -0.2750
     14  N7         9.1680  -18.6770   -8.3580 N.am    1  MOL1       -0.3460
     15  C8        10.4520  -18.1790   -7.9780 C.2     1  MOL1        0.2580
     16  O9        10.7780  -16.9920   -8.2480 O.2     1  MOL1       -0.2710
     17 C10        11.4190  -19.0570   -7.2420 C.3     1  MOL1        0.1670
     18 O11        12.4630  -19.4880   -8.1120 O.3     1  MOL1       -0.4800
     19 C12        13.7690  -19.6900   -7.6590 C.ar    1  MOL1        0.1660
     20 C13        14.7050  -18.6310   -7.6280 C.ar    1  MOL1        0.0120
     21 C21        15.9820  -18.8600   -7.0910 C.ar    1  MOL1       -0.0540
     22 C22        16.3430  -20.1290   -6.6380 C.ar    1  MOL1       -0.0580
     23 C23        15.4350  -21.1850   -6.7160 C.ar    1  MOL1       -0.0160
     24 C24        14.1430  -20.9750   -7.2310 C.ar    1  MOL1        0.1610
     25 C14        14.3680  -17.2550   -8.1590 C.3     1  MOL1        0.0280
     26 N15        14.8130  -16.2130   -7.2120 N.3     1  MOL1       -0.2870
     27 C16        14.0730  -16.2830   -5.9410 C.3     1  MOL1        0.0640
     28 C17        13.4060  -14.9420   -6.1700 C.3     1  MOL1        0.2720
     29 F18        13.8020  -13.9640   -5.2740 F       1  MOL1       -0.2040
     30 F19        12.0340  -15.0230   -6.3410 F       1  MOL1       -0.2040
     31 C20        14.1750  -14.9120   -7.4760 C.3     1  MOL1        0.0640
     32 O25        13.2010  -22.0100   -7.3280 O.3     1  MOL1       -0.4930
     33 C26        13.1250  -23.1160   -6.4340 C.3     1  MOL1        0.0780
@<TRIPOS>BOND
     1    13    12    2
     2    10    11    1
     3    12    11   am
     4    12     9    1
     5     9     8    1
     6     8     1    1
     7     8    14    1
     8     1     2   ar
     9     1     7   ar
    10     2     3   ar
    11    14    15   am
    12    16    15    2
    13    25    20    1
    14    25    26    1
    15    18    19    1
    16    18    17    1
    17    15    17    1
    18     7     5   ar
    19     3     4   ar
    20    19    20   ar
    21    19    24   ar
    22    20    21   ar
    23    31    26    1
    24    31    28    1
    25    32    24    1
    26    32    33    1
    27    24    23   ar
    28    26    27    1
    29     5     4   ar
    30     5     6    1
    31    21    22   ar
    32    23    22   ar
    33    30    28    1
    34    28    27    1
    35    28    29    1
