@<TRIPOS>MOLECULE
L3024_0_out.pdbqt
 33 35 0 0 0
SMALL
GASTEIGER

@<TRIPOS>ATOM
      1 C27        14.6340  -19.9320   -7.1180 C.ar    1  MOL1       -0.0240
      2 C28        13.9770  -21.1680   -7.2530 C.ar    1  MOL1       -0.0570
      3 C29        12.5920  -21.2150   -7.4510 C.ar    1  MOL1       -0.0610
      4 C30        11.8530  -20.0310   -7.5160 C.ar    1  MOL1       -0.0480
      5 C31        12.4950  -18.7950   -7.3870 C.ar    1  MOL1        0.0180
      6 Br32       11.4840  -17.1740   -7.4980 Br      1  MOL1       -0.0510
      7 C33        13.8780  -18.7440   -7.1830 C.ar    1  MOL1       -0.0430
      8  C6        16.1200  -19.8920   -6.8310 C.3     1  MOL1        0.0630
      9  C5        16.6190  -21.2940   -6.4380 C.3     1  MOL1        0.0510
     10  C1        19.2870  -23.5820   -8.1160 C.3     1  MOL1        0.0060
     11  N2        18.3140  -23.0460   -7.1760 N.am    1  MOL1       -0.3590
     12  C3        17.6250  -21.8150   -7.4230 C.2     1  MOL1        0.2220
     13  O4        17.8590  -21.1600   -8.4750 O.2     1  MOL1       -0.2750
     14  N7        16.4060  -18.9250   -5.7650 N.am    1  MOL1       -0.3460
     15  C8        17.6720  -18.2750   -5.6350 C.2     1  MOL1        0.2580
     16  O9        18.6020  -18.5290   -6.4460 O.2     1  MOL1       -0.2710
     17 C10        17.9030  -17.2750   -4.5430 C.3     1  MOL1        0.1670
     18 O11        17.6290  -15.9560   -5.0080 O.3     1  MOL1       -0.4800
     19 C12        16.3320  -15.5280   -5.3040 C.ar    1  MOL1        0.1660
     20 C13        15.3760  -15.3320   -4.2820 C.ar    1  MOL1        0.0120
     21 C21        14.1090  -14.8250   -4.6160 C.ar    1  MOL1       -0.0540
     22 C22        13.7800  -14.5640   -5.9460 C.ar    1  MOL1       -0.0580
     23 C23        14.7080  -14.8060   -6.9590 C.ar    1  MOL1       -0.0160
     24 C24        15.9900  -15.2940   -6.6460 C.ar    1  MOL1        0.1610
     25 C14        15.6790  -15.6550   -2.8350 C.3     1  MOL1        0.0280
     26 N15        14.5900  -16.4630   -2.2480 N.3     1  MOL1       -0.2870
     27 C16        14.5440  -16.3270   -0.7830 C.3     1  MOL1        0.0640
     28 C17        14.9280  -17.7770   -0.5630 C.3     1  MOL1        0.2720
     29 F18        13.9220  -18.5380    0.0060 F       1  MOL1       -0.2040
     30 F19        16.1650  -17.9410    0.0400 F       1  MOL1       -0.2040
     31 C20        14.9780  -17.8740   -2.0750 C.3     1  MOL1        0.0640
     32 O25        16.9520  -15.5510   -7.6340 O.3     1  MOL1       -0.4930
     33 C26        16.8000  -16.5090   -8.6760 C.3     1  MOL1        0.0780
@<TRIPOS>BOND
     1    33    32    1
     2    13    12    2
     3    10    11    1
     4    32    24    1
     5     4     3   ar
     6     4     5   ar
     7     6     5    1
     8     3     2   ar
     9    12    11   am
    10    12     9    1
    11     5     7   ar
    12     2     1   ar
    13     7     1   ar
    14     1     8    1
    15    23    24   ar
    16    23    22   ar
    17     8     9    1
    18     8    14    1
    19    24    19   ar
    20    16    15    2
    21    22    21   ar
    22    14    15   am
    23    15    17    1
    24    19    18    1
    25    19    20   ar
    26    18    17    1
    27    21    20   ar
    28    20    25    1
    29    25    26    1
    30    26    31    1
    31    26    27    1
    32    31    28    1
    33    27    28    1
    34    28    29    1
    35    28    30    1
