@<TRIPOS>MOLECULE
L3024_0_out.pdbqt
 33 35 0 0 0
SMALL
GASTEIGER

@<TRIPOS>ATOM
      1 C27         8.4100  -20.4490   -9.5190 C.ar    1  MOL1       -0.0240
      2 C28         9.1980  -21.5850   -9.7800 C.ar    1  MOL1       -0.0570
      3 C29         8.5940  -22.8120  -10.0770 C.ar    1  MOL1       -0.0610
      4 C30         7.2010  -22.9170  -10.1160 C.ar    1  MOL1       -0.0480
      5 C31         6.4060  -21.7940   -9.8610 C.ar    1  MOL1        0.0180
      6 Br32        4.4990  -21.9340   -9.9350 Br      1  MOL1       -0.0510
      7 C33         7.0050  -20.5670   -9.5580 C.ar    1  MOL1       -0.0430
      8  C6         9.0690  -19.1440   -9.1270 C.3     1  MOL1        0.0630
      9  C5         9.0850  -18.1810  -10.3280 C.3     1  MOL1        0.0510
     10  C1         6.1730  -15.6960  -11.0490 C.3     1  MOL1        0.0060
     11  N2         7.1540  -16.7630  -11.1910 N.am    1  MOL1       -0.3590
     12  C3         8.0930  -17.0680  -10.1550 C.2     1  MOL1        0.2220
     13  O4         8.0900  -16.4020   -9.0830 O.2     1  MOL1       -0.2750
     14  N7        10.4310  -19.3880   -8.6420 N.am    1  MOL1       -0.3460
     15  C8        11.0730  -18.5360   -7.6910 C.2     1  MOL1        0.2580
     16  O9        10.4760  -17.5230   -7.2410 O.2     1  MOL1       -0.2710
     17 C10        12.4590  -18.8460   -7.2090 C.3     1  MOL1        0.1670
     18 O11        13.3500  -18.9900   -8.3120 O.3     1  MOL1       -0.4800
     19 C12        14.7380  -19.0100   -8.1460 C.ar    1  MOL1        0.1660
     20 C13        15.4820  -17.8100   -8.0670 C.ar    1  MOL1        0.0120
     21 C21        16.8630  -17.8750   -7.8210 C.ar    1  MOL1       -0.0540
     22 C22        17.5040  -19.1090   -7.7030 C.ar    1  MOL1       -0.0580
     23 C23        16.7760  -20.2920   -7.8300 C.ar    1  MOL1       -0.0160
     24 C24        15.3880  -20.2520   -8.0580 C.ar    1  MOL1        0.1610
     25 C14        14.8310  -16.4560   -8.2440 C.3     1  MOL1        0.0280
     26 N15        15.0900  -15.6020   -7.0670 N.3     1  MOL1       -0.2870
     27 C16        14.3830  -16.0950   -5.8730 C.3     1  MOL1        0.0640
     28 C17        13.4860  -14.8750   -5.8100 C.3     1  MOL1        0.2720
     29 F18        13.7080  -14.0790   -4.6990 F       1  MOL1       -0.2040
     30 F19        12.1490  -15.1530   -6.0430 F       1  MOL1       -0.2040
     31 C20        14.2290  -14.4070   -7.0460 C.3     1  MOL1        0.0640
     32 O25        14.6200  -21.4180   -8.1930 O.3     1  MOL1       -0.4930
     33 C26        15.1070  -22.6450   -8.7250 C.3     1  MOL1        0.0780
@<TRIPOS>BOND
     1    11    10    1
     2    11    12   am
     3     9    12    1
     4     9     8    1
     5    12    13    2
     6     4     3   ar
     7     4     5   ar
     8     3     2   ar
     9     6     5    1
    10     5     7   ar
    11     2     1   ar
    12     7     1   ar
    13     1     8    1
    14     8    14    1
    15    33    32    1
    16    14    15   am
    17    18    19    1
    18    18    17    1
    19    25    20    1
    20    25    26    1
    21    32    24    1
    22    19    20   ar
    23    19    24   ar
    24    20    21   ar
    25    24    23   ar
    26    23    22   ar
    27    21    22   ar
    28    15    16    2
    29    15    17    1
    30    26    31    1
    31    26    27    1
    32    31    28    1
    33    30    28    1
    34    27    28    1
    35    28    29    1
