@<TRIPOS>MOLECULE
L3024_0_out.pdbqt
 33 35 0 0 0
SMALL
GASTEIGER

@<TRIPOS>ATOM
      1 C27        17.1370  -17.3810   -6.3860 C.ar    1  MOL1       -0.0240
      2 C28        18.1590  -18.1850   -5.8500 C.ar    1  MOL1       -0.0570
      3 C29        18.9840  -18.9360   -6.6950 C.ar    1  MOL1       -0.0610
      4 C30        18.7970  -18.8910   -8.0790 C.ar    1  MOL1       -0.0480
      5 C31        17.7860  -18.0930   -8.6250 C.ar    1  MOL1        0.0180
      6 Br32       17.5450  -18.0150  -10.5210 Br      1  MOL1       -0.0510
      7 C33        16.9560  -17.3450   -7.7830 C.ar    1  MOL1       -0.0430
      8  C6        16.2030  -16.6290   -5.4620 C.3     1  MOL1        0.0630
      9  C5        16.4620  -17.0400   -4.0010 C.3     1  MOL1        0.0510
     10  C1        14.2630  -15.5000   -1.1800 C.3     1  MOL1        0.0060
     11  N2        14.8410  -16.4370   -2.1320 N.am    1  MOL1       -0.3590
     12  C3        15.8780  -16.0470   -3.0380 C.2     1  MOL1        0.2220
     13  O4        16.3130  -14.8630   -3.0310 O.2     1  MOL1       -0.2750
     14  N7        14.8070  -16.8870   -5.8310 N.am    1  MOL1       -0.3460
     15  C8        13.9330  -15.8590   -6.3010 C.2     1  MOL1        0.2580
     16  O9        14.3450  -14.6730   -6.4040 O.2     1  MOL1       -0.2710
     17 C10        12.5210  -16.1820   -6.6900 C.3     1  MOL1        0.1670
     18 O11        12.5010  -17.0220   -7.8420 O.3     1  MOL1       -0.4800
     19 C12        11.6820  -18.1520   -7.9210 C.ar    1  MOL1        0.1660
     20 C13        12.2330  -19.4530   -7.9720 C.ar    1  MOL1        0.0120
     21 C21        11.3720  -20.5620   -7.9710 C.ar    1  MOL1       -0.0540
     22 C22         9.9880  -20.3850   -7.9700 C.ar    1  MOL1       -0.0580
     23 C23         9.4460  -19.1000   -7.9710 C.ar    1  MOL1       -0.0160
     24 C24        10.2890  -17.9730   -7.9510 C.ar    1  MOL1        0.1610
     25 C14        13.7270  -19.6830   -8.0280 C.3     1  MOL1        0.0280
     26 N15        14.1140  -20.7820   -7.1200 N.3     1  MOL1       -0.2870
     27 C16        15.4550  -20.5670   -6.5500 C.3     1  MOL1        0.0640
     28 C17        16.0360  -21.7650   -7.2750 C.3     1  MOL1        0.2720
     29 F18        16.4210  -22.7920   -6.4300 F       1  MOL1       -0.2040
     30 F19        16.9870  -21.4340   -8.2260 F       1  MOL1       -0.2040
     31 C20        14.6450  -21.9460   -7.8510 C.3     1  MOL1        0.0640
     32 O25         9.7850  -16.6640   -7.9520 O.3     1  MOL1       -0.4930
     33 C26         8.5890  -16.2630   -8.6120 C.3     1  MOL1        0.0780
@<TRIPOS>BOND
     1     6     5    1
     2     5     4   ar
     3     5     7   ar
     4    33    32    1
     5    30    28    1
     6     4     3   ar
     7    25    20    1
     8    25    26    1
     9    20    21   ar
    10    20    19   ar
    11    23    22   ar
    12    23    24   ar
    13    21    22   ar
    14    32    24    1
    15    24    19   ar
    16    19    18    1
    17    31    28    1
    18    31    26    1
    19    18    17    1
    20     7     1   ar
    21    28    27    1
    22    28    29    1
    23    26    27    1
    24     3     2   ar
    25    17    15    1
    26    16    15    2
    27     1     2   ar
    28     1     8    1
    29    15    14   am
    30    14     8    1
    31     8     9    1
    32     9    12    1
    33    12    13    2
    34    12    11   am
    35    11    10    1
