@<TRIPOS>MOLECULE
L3024_0_out.pdbqt
 33 35 0 0 0
SMALL
GASTEIGER

@<TRIPOS>ATOM
      1 C27         8.4320  -17.8240   -9.3130 C.ar    1  MOL1       -0.0240
      2 C28         8.1760  -17.3520  -10.6140 C.ar    1  MOL1       -0.0570
      3 C29         7.0390  -16.5800  -10.8750 C.ar    1  MOL1       -0.0610
      4 C30         6.1480  -16.2730   -9.8430 C.ar    1  MOL1       -0.0480
      5 C31         6.3930  -16.7330   -8.5440 C.ar    1  MOL1        0.0180
      6 Br32        5.1840  -16.2940   -7.1280 Br      1  MOL1       -0.0510
      7 C33         7.5260  -17.5100   -8.2810 C.ar    1  MOL1       -0.0430
      8  C6         9.6250  -18.7190   -9.0540 C.3     1  MOL1        0.0630
      9  C5         9.2180  -19.8900   -8.1420 C.3     1  MOL1        0.0510
     10  C1         6.7480  -22.3420   -9.8910 C.3     1  MOL1        0.0060
     11  N2         7.2860  -21.2320   -9.1170 N.am    1  MOL1       -0.3590
     12  C3         8.6940  -21.0510   -8.9360 C.2     1  MOL1        0.2220
     13  O4         9.5080  -21.8670   -9.4490 O.2     1  MOL1       -0.2750
     14  N7        10.7160  -17.9480   -8.4490 N.am    1  MOL1       -0.3460
     15  C8        12.0160  -17.8620   -9.0370 C.2     1  MOL1        0.2580
     16  O9        12.2680  -18.4690  -10.1110 O.2     1  MOL1       -0.2710
     17 C10        13.0890  -17.0380   -8.3900 C.3     1  MOL1        0.1670
     18 O11        13.5610  -17.6760   -7.2050 O.3     1  MOL1       -0.4800
     19 C12        14.8950  -18.0660   -7.0550 C.ar    1  MOL1        0.1660
     20 C13        15.2340  -19.3930   -6.7070 C.ar    1  MOL1        0.0120
     21 C21        16.5890  -19.7610   -6.6440 C.ar    1  MOL1       -0.0540
     22 C22        17.5900  -18.8170   -6.8750 C.ar    1  MOL1       -0.0580
     23 C23        17.2530  -17.4960   -7.1700 C.ar    1  MOL1       -0.0160
     24 C24        15.9030  -17.1090   -7.2580 C.ar    1  MOL1        0.1610
     25 C14        14.1770  -20.4300   -6.3970 C.3     1  MOL1        0.0280
     26 N15        13.7690  -21.1350   -7.6300 N.3     1  MOL1       -0.2870
     27 C16        12.3600  -21.5570   -7.5710 C.3     1  MOL1        0.0640
     28 C17        12.7240  -23.0280   -7.5690 C.3     1  MOL1        0.2720
     29 F18        12.3270  -23.7020   -8.7110 F       1  MOL1       -0.2040
     30 F19        12.3990  -23.6810   -6.3910 F       1  MOL1       -0.2040
     31 C20        14.1640  -22.5540   -7.6160 C.3     1  MOL1        0.0640
     32 O25        15.5230  -15.7910   -7.5500 O.3     1  MOL1       -0.4930
     33 C26        16.4330  -14.7330   -7.8290 C.3     1  MOL1        0.0780
@<TRIPOS>BOND
     1     3     2   ar
     2     3     4   ar
     3     2     1   ar
     4    16    15    2
     5    10    11    1
     6     4     5   ar
     7    13    12    2
     8     1     8    1
     9     1     7   ar
    10    11    12   am
    11     8    14    1
    12     8     9    1
    13    15    14   am
    14    15    17    1
    15    12     9    1
    16    29    28    1
    17     5     7   ar
    18     5     6    1
    19    17    18    1
    20    33    32    1
    21    26    31    1
    22    26    27    1
    23    26    25    1
    24    31    28    1
    25    27    28    1
    26    28    30    1
    27    32    24    1
    28    24    23   ar
    29    24    19   ar
    30    18    19    1
    31    23    22   ar
    32    19    20   ar
    33    22    21   ar
    34    20    21   ar
    35    20    25    1
