@<TRIPOS>MOLECULE
L3024_0_out.pdbqt
 33 35 0 0 0
SMALL
GASTEIGER

@<TRIPOS>ATOM
      1 C27         7.9880  -19.8410   -9.9900 C.ar    1  MOL1       -0.0240
      2 C28         8.8860  -20.7860  -10.5180 C.ar    1  MOL1       -0.0570
      3 C29         8.4440  -22.0700  -10.8560 C.ar    1  MOL1       -0.0610
      4 C30         7.1040  -22.4220  -10.6710 C.ar    1  MOL1       -0.0480
      5 C31         6.2000  -21.4890  -10.1500 C.ar    1  MOL1        0.0180
      6 Br32        4.3620  -21.9650   -9.9180 Br      1  MOL1       -0.0510
      7 C33         6.6390  -20.2070   -9.8060 C.ar    1  MOL1       -0.0430
      8  C6         8.4890  -18.4790   -9.5590 C.3     1  MOL1        0.0630
      9  C5         7.7380  -17.3740  -10.3240 C.3     1  MOL1        0.0510
     10  C1         5.6000  -16.4190   -7.2120 C.3     1  MOL1        0.0060
     11  N2         6.5930  -17.0440   -8.0730 N.am    1  MOL1       -0.3590
     12  C3         6.6950  -16.7200   -9.4640 C.2     1  MOL1        0.2220
     13  O4         5.9090  -15.8780   -9.9770 O.2     1  MOL1       -0.2750
     14  N7         9.9340  -18.3740   -9.7870 N.am    1  MOL1       -0.3460
     15  C8        10.8430  -17.9390   -8.7730 C.2     1  MOL1        0.2580
     16  O9        10.4160  -17.6170   -7.6330 O.2     1  MOL1       -0.2710
     17 C10        12.3150  -17.8740   -9.0510 C.3     1  MOL1        0.1670
     18 O11        12.9020  -19.1680   -8.9330 O.3     1  MOL1       -0.4800
     19 C12        13.4210  -19.6390   -7.7240 C.ar    1  MOL1        0.1660
     20 C13        14.2690  -18.8340   -6.9290 C.ar    1  MOL1        0.0120
     21 C21        14.7030  -19.3170   -5.6840 C.ar    1  MOL1       -0.0540
     22 C22        14.3440  -20.5950   -5.2560 C.ar    1  MOL1       -0.0580
     23 C23        13.5480  -21.4070   -6.0640 C.ar    1  MOL1       -0.0160
     24 C24        13.0840  -20.9370   -7.3070 C.ar    1  MOL1        0.1610
     25 C14        14.7230  -17.4640   -7.3840 C.3     1  MOL1        0.0280
     26 N15        15.9130  -17.0360   -6.6200 N.3     1  MOL1       -0.2870
     27 C16        15.7760  -15.6520   -6.1350 C.3     1  MOL1        0.0640
     28 C17        16.9040  -15.1540   -7.0160 C.3     1  MOL1        0.2720
     29 F18        18.0160  -14.7300   -6.3090 F       1  MOL1       -0.2040
     30 F19        16.4950  -14.2690   -8.0000 F       1  MOL1       -0.2040
     31 C20        17.0060  -16.5870   -7.5000 C.3     1  MOL1        0.0640
     32 O25        12.2840  -21.7220   -8.1490 O.3     1  MOL1       -0.4930
     33 C26        11.9880  -23.0970   -7.9280 C.3     1  MOL1        0.0780
@<TRIPOS>BOND
     1     3     4   ar
     2     3     2   ar
     3     4     5   ar
     4     2     1   ar
     5     9     8    1
     6     9    12    1
     7     5     6    1
     8     5     7   ar
     9     1     7   ar
    10     1     8    1
    11    13    12    2
    12    14     8    1
    13    14    15   am
    14    12    11   am
    15    17    18    1
    16    17    15    1
    17    18    19    1
    18    15    16    2
    19    32    33    1
    20    32    24    1
    21    11    10    1
    22    30    28    1
    23    19    24   ar
    24    19    20   ar
    25    31    28    1
    26    31    26    1
    27    25    20    1
    28    25    26    1
    29    24    23   ar
    30    28    29    1
    31    28    27    1
    32    20    21   ar
    33    26    27    1
    34    23    22   ar
    35    21    22   ar
