@<TRIPOS>MOLECULE
L3024_0_out.pdbqt
 33 35 0 0 0
SMALL
GASTEIGER

@<TRIPOS>ATOM
      1 C27        12.8430  -19.5090   -7.3600 C.ar    1  MOL1       -0.0240
      2 C28        11.8910  -20.5300   -7.5370 C.ar    1  MOL1       -0.0570
      3 C29        12.2740  -21.8740   -7.4670 C.ar    1  MOL1       -0.0610
      4 C30        13.6080  -22.2110   -7.2210 C.ar    1  MOL1       -0.0480
      5 C31        14.5640  -21.2060   -7.0400 C.ar    1  MOL1        0.0180
      6 Br32       16.3850  -21.6690   -6.6820 Br      1  MOL1       -0.0510
      7 C33        14.1860  -19.8610   -7.1150 C.ar    1  MOL1       -0.0430
      8  C6        12.4350  -18.0590   -7.5090 C.3     1  MOL1        0.0630
      9  C5        11.6180  -17.8710   -8.8000 C.3     1  MOL1        0.0510
     10  C1         7.7570  -17.4100   -9.0310 C.3     1  MOL1        0.0060
     11  N2         9.1210  -17.8450   -9.2980 N.am    1  MOL1       -0.3590
     12  C3        10.2250  -17.3960   -8.5050 C.2     1  MOL1        0.2220
     13  O4        10.0320  -16.5980   -7.5480 O.2     1  MOL1       -0.2750
     14  N7        13.6210  -17.1960   -7.5180 N.am    1  MOL1       -0.3460
     15  C8        13.7040  -15.9940   -6.7490 C.2     1  MOL1        0.2580
     16  O9        12.7330  -15.6300   -6.0330 O.2     1  MOL1       -0.2710
     17 C10        14.9500  -15.1620   -6.7740 C.3     1  MOL1        0.1670
     18 O11        15.6220  -15.2310   -5.5190 O.3     1  MOL1       -0.4800
     19 C12        16.0060  -16.4480   -4.9500 C.ar    1  MOL1        0.1660
     20 C13        16.9450  -17.2900   -5.5890 C.ar    1  MOL1        0.0120
     21 C21        17.3610  -18.4660   -4.9430 C.ar    1  MOL1       -0.0540
     22 C22        16.8210  -18.8250   -3.7080 C.ar    1  MOL1       -0.0580
     23 C23        15.8580  -18.0180   -3.1030 C.ar    1  MOL1       -0.0160
     24 C24        15.4400  -16.8250   -3.7210 C.ar    1  MOL1        0.1610
     25 C14        17.5120  -16.9610   -6.9520 C.3     1  MOL1        0.0280
     26 N15        17.0830  -17.9660   -7.9460 N.3     1  MOL1       -0.2870
     27 C16        18.2370  -18.6030   -8.6040 C.3     1  MOL1        0.0640
     28 C17        17.8920  -18.0020   -9.9530 C.3     1  MOL1        0.2720
     29 F18        17.5090  -18.9380  -10.8970 F       1  MOL1       -0.2040
     30 F19        18.8290  -17.0910  -10.4130 F       1  MOL1       -0.2040
     31 C20        16.7240  -17.3530   -9.2360 C.3     1  MOL1        0.0640
     32 O25        14.4740  -15.9870   -3.1460 O.3     1  MOL1       -0.4930
     33 C26        14.6020  -15.3640   -1.8730 C.3     1  MOL1        0.0780
@<TRIPOS>BOND
     1    29    28    1
     2    30    28    1
     3    28    31    1
     4    28    27    1
     5    11    10    1
     6    11    12   am
     7    31    26    1
     8     9    12    1
     9     9     8    1
    10    27    26    1
    11    12    13    2
    12    26    25    1
    13     2     3   ar
    14     2     1   ar
    15    14     8    1
    16    14    15   am
    17     8     1    1
    18     3     4   ar
    19     1     7   ar
    20     4     5   ar
    21     7     5   ar
    22     5     6    1
    23    25    20    1
    24    17    15    1
    25    17    18    1
    26    15    16    2
    27    20    19   ar
    28    20    21   ar
    29    18    19    1
    30    19    24   ar
    31    21    22   ar
    32    24    32    1
    33    24    23   ar
    34    22    23   ar
    35    32    33    1
