@<TRIPOS>MOLECULE
L3024_0_out.pdbqt
 33 35 0 0 0
SMALL
GASTEIGER

@<TRIPOS>ATOM
      1 C27         9.9200  -17.7880   -8.6420 C.ar    1  MOL1       -0.0240
      2 C28         9.3500  -16.7010   -7.9540 C.ar    1  MOL1       -0.0570
      3 C29         8.2420  -16.0320   -8.4830 C.ar    1  MOL1       -0.0610
      4 C30         7.6920  -16.4390   -9.7020 C.ar    1  MOL1       -0.0480
      5 C31         8.2470  -17.5210  -10.3950 C.ar    1  MOL1        0.0180
      6 Br32        7.4810  -18.0910  -12.0520 Br      1  MOL1       -0.0510
      7 C33         9.3590  -18.1890   -9.8710 C.ar    1  MOL1       -0.0430
      8  C6        11.1630  -18.4600   -8.0990 C.3     1  MOL1        0.0630
      9  C5        10.7700  -19.6460   -7.2000 C.3     1  MOL1        0.0510
     10  C1        12.5860  -23.0250   -7.8790 C.3     1  MOL1        0.0060
     11  N2        12.2120  -21.7440   -7.2980 N.am    1  MOL1       -0.3590
     12  C3        11.1380  -20.9590   -7.8280 C.2     1  MOL1        0.2220
     13  O4        10.4900  -21.3690   -8.8300 O.2     1  MOL1       -0.2750
     14  N7        11.9780  -17.4950   -7.3540 N.am    1  MOL1       -0.3460
     15  C8        13.3750  -17.6870   -7.1200 C.2     1  MOL1        0.2580
     16  O9        13.9550  -18.7190   -7.5500 O.2     1  MOL1       -0.2710
     17 C10        14.1680  -16.6560   -6.3750 C.3     1  MOL1        0.1670
     18 O11        14.9060  -17.2630   -5.3170 O.3     1  MOL1       -0.4800
     19 C12        16.1500  -16.7750   -4.9060 C.ar    1  MOL1        0.1660
     20 C13        17.3440  -17.1970   -5.5330 C.ar    1  MOL1        0.0120
     21 C21        18.5650  -16.6220   -5.1410 C.ar    1  MOL1       -0.0540
     22 C22        18.6050  -15.6800   -4.1130 C.ar    1  MOL1       -0.0580
     23 C23        17.4310  -15.3020   -3.4620 C.ar    1  MOL1       -0.0160
     24 C24        16.1950  -15.8500   -3.8500 C.ar    1  MOL1        0.1610
     25 C14        17.3460  -18.2550   -6.6150 C.3     1  MOL1        0.0280
     26 N15        17.9550  -17.7260   -7.8520 N.3     1  MOL1       -0.2870
     27 C16        16.9950  -16.9250   -8.6300 C.3     1  MOL1        0.0640
     28 C17        16.9820  -17.9180   -9.7750 C.3     1  MOL1        0.2720
     29 F18        17.5320  -17.4250  -10.9450 F       1  MOL1       -0.2040
     30 F19        15.7610  -18.5500   -9.9520 F       1  MOL1       -0.2040
     31 C20        17.9590  -18.7210   -8.9390 C.3     1  MOL1        0.0640
     32 O25        14.9920  -15.4970   -3.2210 O.3     1  MOL1       -0.4930
     33 C26        14.6400  -14.1710   -2.8420 C.3     1  MOL1        0.0780
@<TRIPOS>BOND
     1     6     5    1
     2    29    28    1
     3     5     7   ar
     4     5     4   ar
     5    30    28    1
     6     7     1   ar
     7    28    31    1
     8    28    27    1
     9     4     3   ar
    10    31    26    1
    11    13    12    2
    12     1     8    1
    13     1     2   ar
    14    27    26    1
    15     3     2   ar
    16     8    14    1
    17     8     9    1
    18    10    11    1
    19    26    25    1
    20    12    11   am
    21    12     9    1
    22    16    15    2
    23    14    15   am
    24    15    17    1
    25    25    20    1
    26    17    18    1
    27    20    21   ar
    28    20    19   ar
    29    18    19    1
    30    21    22   ar
    31    19    24   ar
    32    22    23   ar
    33    24    23   ar
    34    24    32    1
    35    32    33    1
