@<TRIPOS>MOLECULE
L3024_0_out.pdbqt
 33 35 0 0 0
SMALL
GASTEIGER

@<TRIPOS>ATOM
      1 C27        12.1100  -17.4750   -8.0940 C.ar    1  MOL1       -0.0240
      2 C28        12.5980  -18.0880   -9.2620 C.ar    1  MOL1       -0.0570
      3 C29        11.7120  -18.5400  -10.2470 C.ar    1  MOL1       -0.0610
      4 C30        10.3340  -18.3850  -10.0750 C.ar    1  MOL1       -0.0480
      5 C31         9.8360  -17.7740   -8.9180 C.ar    1  MOL1        0.0180
      6 Br32        7.9500  -17.5420   -8.6940 Br      1  MOL1       -0.0510
      7 C33        10.7180  -17.3260   -7.9300 C.ar    1  MOL1       -0.0430
      8  C6        13.0700  -17.0560   -7.0020 C.3     1  MOL1        0.0630
      9  C5        12.9660  -15.5380   -6.7620 C.3     1  MOL1        0.0510
     10  C1        14.9370  -14.5250   -3.5590 C.3     1  MOL1        0.0060
     11  N2        14.6110  -14.8820   -4.9320 N.am    1  MOL1       -0.3590
     12  C3        13.2710  -15.1840   -5.3360 C.2     1  MOL1        0.2220
     13  O4        12.3340  -15.1500   -4.4920 O.2     1  MOL1       -0.2750
     14  N7        14.4430  -17.4290   -7.3600 N.am    1  MOL1       -0.3460
     15  C8        15.3330  -18.0640   -6.4400 C.2     1  MOL1        0.2580
     16  O9        14.9560  -18.3180   -5.2650 O.2     1  MOL1       -0.2710
     17 C10        16.7180  -18.4480   -6.8670 C.3     1  MOL1        0.1670
     18 O11        16.6680  -19.4710   -7.8590 O.3     1  MOL1       -0.4800
     19 C12        17.3950  -20.6590   -7.7350 C.ar    1  MOL1        0.1660
     20 C13        16.8860  -21.7540   -7.0000 C.ar    1  MOL1        0.0120
     21 C21        17.6140  -22.9550   -6.9690 C.ar    1  MOL1       -0.0540
     22 C22        18.8460  -23.0540   -7.6140 C.ar    1  MOL1       -0.0580
     23 C23        19.3700  -21.9560   -8.2970 C.ar    1  MOL1       -0.0160
     24 C24        18.6500  -20.7480   -8.3590 C.ar    1  MOL1        0.1610
     25 C14        15.5790  -21.6670   -6.2440 C.3     1  MOL1        0.0280
     26 N15        14.4780  -22.2350   -7.0500 N.3     1  MOL1       -0.2870
     27 C16        13.8050  -21.1990   -7.8520 C.3     1  MOL1        0.0640
     28 C17        12.5080  -21.3400   -7.0790 C.3     1  MOL1        0.2720
     29 F18        11.4650  -21.8510   -7.8310 F       1  MOL1       -0.2040
     30 F19        12.1710  -20.2140   -6.3450 F       1  MOL1       -0.2040
     31 C20        13.2400  -22.3910   -6.2670 C.3     1  MOL1        0.0640
     32 O25        19.1410  -19.6210   -9.0340 O.3     1  MOL1       -0.4930
     33 C26        20.2930  -19.6220   -9.8700 C.3     1  MOL1        0.0780
@<TRIPOS>BOND
     1     3     4   ar
     2     3     2   ar
     3     4     5   ar
     4    33    32    1
     5     2     1   ar
     6    32    24    1
     7     5     6    1
     8     5     7   ar
     9    24    23   ar
    10    24    19   ar
    11    23    22   ar
    12     1     7   ar
    13     1     8    1
    14    18    19    1
    15    18    17    1
    16    27    28    1
    17    27    26    1
    18    29    28    1
    19    19    20   ar
    20    22    21   ar
    21    14     8    1
    22    14    15   am
    23    28    30    1
    24    28    31    1
    25    26    31    1
    26    26    25    1
    27     8     9    1
    28    20    21   ar
    29    20    25    1
    30    17    15    1
    31     9    12    1
    32    15    16    2
    33    12    11   am
    34    12    13    2
    35    11    10    1
