@<TRIPOS>MOLECULE
L3024_0_out.pdbqt
 33 35 0 0 0
SMALL
GASTEIGER

@<TRIPOS>ATOM
      1 C27         7.0280  -19.5050  -10.1370 C.ar    1  MOL1       -0.0240
      2 C28         7.0420  -20.4950  -11.1360 C.ar    1  MOL1       -0.0570
      3 C29         6.3930  -21.7180  -10.9280 C.ar    1  MOL1       -0.0610
      4 C30         5.7270  -21.9630   -9.7240 C.ar    1  MOL1       -0.0480
      5 C31         5.7040  -20.9850   -8.7240 C.ar    1  MOL1        0.0180
      6 Br32        4.7730  -21.3130   -7.0850 Br      1  MOL1       -0.0510
      7 C33         6.3550  -19.7640   -8.9260 C.ar    1  MOL1       -0.0430
      8  C6         7.7930  -18.2140  -10.3400 C.3     1  MOL1        0.0630
      9  C5         7.2990  -17.5040  -11.6130 C.3     1  MOL1        0.0510
     10  C1         5.1190  -14.2850  -11.8610 C.3     1  MOL1        0.0060
     11  N2         5.7100  -15.5850  -12.1440 N.am    1  MOL1       -0.3590
     12  C3         6.7160  -16.1560  -11.3000 C.2     1  MOL1        0.2220
     13  O4         7.1190  -15.5280  -10.2830 O.2     1  MOL1       -0.2750
     14  N7         9.2320  -18.4840  -10.4240 N.am    1  MOL1       -0.3460
     15  C8        10.1720  -17.9430   -9.4930 C.2     1  MOL1        0.2580
     16  O9         9.7810  -17.1950   -8.5590 O.2     1  MOL1       -0.2710
     17 C10        11.6300  -18.2720   -9.6100 C.3     1  MOL1        0.1670
     18 O11        12.1500  -18.6890   -8.3500 O.3     1  MOL1       -0.4800
     19 C12        13.0990  -19.7090   -8.2390 C.ar    1  MOL1        0.1660
     20 C13        14.4740  -19.4530   -8.4440 C.ar    1  MOL1        0.0120
     21 C21        15.4010  -20.4900   -8.2450 C.ar    1  MOL1       -0.0540
     22 C22        14.9670  -21.7700   -7.8980 C.ar    1  MOL1       -0.0580
     23 C23        13.6060  -22.0320   -7.7460 C.ar    1  MOL1       -0.0160
     24 C24        12.6600  -21.0040   -7.9200 C.ar    1  MOL1        0.1610
     25 C14        14.9760  -18.0920   -8.8730 C.3     1  MOL1        0.0280
     26 N15        16.1070  -17.6680   -8.0220 N.3     1  MOL1       -0.2870
     27 C16        15.6930  -16.6560   -7.0360 C.3     1  MOL1        0.0640
     28 C17        16.5500  -15.5790   -7.6720 C.3     1  MOL1        0.2720
     29 F18        17.6000  -15.1610   -6.8740 F       1  MOL1       -0.2040
     30 F19        15.8200  -14.5420   -8.2290 F       1  MOL1       -0.2040
     31 C20        16.9420  -16.6460   -8.6760 C.3     1  MOL1        0.0640
     32 O25        11.2830  -21.2270   -7.7770 O.3     1  MOL1       -0.4930
     33 C26        10.4150  -21.6090   -8.8390 C.3     1  MOL1        0.0780
@<TRIPOS>BOND
     1    11    10    1
     2    11    12   am
     3     9    12    1
     4     9     8    1
     5    12    13    2
     6     2     3   ar
     7     2     1   ar
     8     3     4   ar
     9    14     8    1
    10    14    15   am
    11     8     1    1
    12     1     7   ar
    13     4     5   ar
    14    17    15    1
    15    17    18    1
    16    15    16    2
    17     7     5   ar
    18    25    20    1
    19    25    26    1
    20    33    32    1
    21     5     6    1
    22    31    26    1
    23    31    28    1
    24    20    21   ar
    25    20    19   ar
    26    18    19    1
    27    21    22   ar
    28    19    24   ar
    29    30    28    1
    30    26    27    1
    31    24    32    1
    32    24    23   ar
    33    22    23   ar
    34    28    27    1
    35    28    29    1
