@<TRIPOS>MOLECULE
L3024_0_out.pdbqt
 33 35 0 0 0
SMALL
GASTEIGER

@<TRIPOS>ATOM
      1 C27        -0.4660  -20.7140   -8.4340 C.ar    1  MOL1       -0.0240
      2 C28        -0.4390  -19.6380   -7.5290 C.ar    1  MOL1       -0.0570
      3 C29        -1.6200  -18.9650   -7.1940 C.ar    1  MOL1       -0.0610
      4 C30        -2.8360  -19.3600   -7.7580 C.ar    1  MOL1       -0.0480
      5 C31        -2.8760  -20.4310   -8.6580 C.ar    1  MOL1        0.0180
      6 Br32       -4.5450  -20.9850   -9.4130 Br      1  MOL1       -0.0510
      7 C33        -1.6980  -21.1020   -8.9990 C.ar    1  MOL1       -0.0430
      8  C6         0.8250  -21.3890   -8.8460 C.3     1  MOL1        0.0630
      9  C5         0.6870  -22.9160   -8.7160 C.3     1  MOL1        0.0510
     10  C1        -1.0940  -24.6140  -11.7360 C.3     1  MOL1        0.0060
     11  N2        -0.8450  -23.9910  -10.4440 N.am    1  MOL1       -0.3590
     12  C3         0.4640  -23.5650  -10.0510 C.2     1  MOL1        0.2220
     13  O4         1.4420  -23.7290  -10.8300 O.2     1  MOL1       -0.2750
     14  N7         1.9390  -20.8990   -8.0270 N.am    1  MOL1       -0.3460
     15  C8         3.3060  -21.0850   -8.3980 C.2     1  MOL1        0.2580
     16  O9         3.5990  -21.6980   -9.4590 O.2     1  MOL1       -0.2710
     17 C10         4.4060  -20.5410   -7.5360 C.3     1  MOL1        0.1670
     18 O11         4.4230  -19.1170   -7.5890 O.3     1  MOL1       -0.4800
     19 C12         5.6000  -18.3970   -7.8120 C.ar    1  MOL1        0.1660
     20 C13         6.7780  -19.0410   -8.2550 C.ar    1  MOL1        0.0120
     21 C21         7.9150  -18.2670   -8.5420 C.ar    1  MOL1       -0.0540
     22 C22         7.9000  -16.8860   -8.3470 C.ar    1  MOL1       -0.0580
     23 C23         6.7520  -16.2590   -7.8620 C.ar    1  MOL1       -0.0160
     24 C24         5.5940  -17.0110   -7.5860 C.ar    1  MOL1        0.1610
     25 C14         6.8490  -20.5420   -8.4270 C.3     1  MOL1        0.0280
     26 N15         7.5630  -20.8850   -9.6730 N.3     1  MOL1       -0.2870
     27 C16         6.6660  -20.8470  -10.8400 C.3     1  MOL1        0.0640
     28 C17         6.7820  -22.3400  -11.0710 C.3     1  MOL1        0.2720
     29 F18         7.4320  -22.6720  -12.2470 F       1  MOL1       -0.2040
     30 F19         5.5970  -23.0300  -10.8710 F       1  MOL1       -0.2040
     31 C20         7.6910  -22.3410   -9.8580 C.3     1  MOL1        0.0640
     32 O25         4.4210  -16.4190   -7.0960 O.3     1  MOL1       -0.4930
     33 C26         4.3890  -15.3090   -6.2050 C.3     1  MOL1        0.0780
@<TRIPOS>BOND
     1    29    28    1
     2    10    11    1
     3    28    30    1
     4    28    27    1
     5    28    31    1
     6    27    26    1
     7    13    12    2
     8    11    12   am
     9    12     9    1
    10    31    26    1
    11    26    25    1
    12    16    15    2
    13     6     5    1
    14     7     5   ar
    15     7     1   ar
    16     8     9    1
    17     8     1    1
    18     8    14    1
    19     5     4   ar
    20    21    22   ar
    21    21    20   ar
    22     1     2   ar
    23    25    20    1
    24    15    14   am
    25    15    17    1
    26    22    23   ar
    27    20    19   ar
    28    23    24   ar
    29    19    18    1
    30    19    24   ar
    31     4     3   ar
    32    18    17    1
    33    24    32    1
    34     2     3   ar
    35    32    33    1
