@<TRIPOS>MOLECULE
L3024_0_out.pdbqt
 33 35 0 0 0
SMALL
GASTEIGER

@<TRIPOS>ATOM
      1 C27         7.7980  -18.1070   -9.1740 C.ar    1  MOL1       -0.0240
      2 C28         7.8420  -17.4430  -10.4130 C.ar    1  MOL1       -0.0570
      3 C29         6.9640  -16.3880  -10.6830 C.ar    1  MOL1       -0.0610
      4 C30         6.0330  -15.9870   -9.7210 C.ar    1  MOL1       -0.0480
      5 C31         5.9800  -16.6370   -8.4820 C.ar    1  MOL1        0.0180
      6 Br32        4.7210  -16.0730   -7.1570 Br      1  MOL1       -0.0510
      7 C33         6.8540  -17.6950   -8.2110 C.ar    1  MOL1       -0.0430
      8  C6         8.7020  -19.2930   -8.9170 C.3     1  MOL1        0.0630
      9  C5         7.9030  -20.4310   -8.2560 C.3     1  MOL1        0.0510
     10  C1         4.8640  -21.9420  -10.1660 C.3     1  MOL1        0.0060
     11  N2         5.6700  -21.2160   -9.1960 N.am    1  MOL1       -0.3590
     12  C3         7.1000  -21.1990   -9.2660 C.2     1  MOL1        0.2220
     13  O4         7.6960  -21.8290  -10.1820 O.2     1  MOL1       -0.2750
     14  N7         9.8330  -18.8960   -8.0720 N.am    1  MOL1       -0.3460
     15  C8        11.0790  -18.4530   -8.6120 C.2     1  MOL1        0.2580
     16  O9        11.2470  -18.4000   -9.8600 O.2     1  MOL1       -0.2710
     17 C10        12.1950  -18.0350   -7.7020 C.3     1  MOL1        0.1670
     18 O11        13.3610  -18.8160   -7.9500 O.3     1  MOL1       -0.4800
     19 C12        14.2540  -19.1580   -6.9310 C.ar    1  MOL1        0.1660
     20 C13        15.3250  -18.3040   -6.5800 C.ar    1  MOL1        0.0120
     21 C21        16.1510  -18.6500   -5.4970 C.ar    1  MOL1       -0.0540
     22 C22        15.9490  -19.8450   -4.8060 C.ar    1  MOL1       -0.0580
     23 C23        14.9230  -20.7100   -5.1870 C.ar    1  MOL1       -0.0160
     24 C24        14.0700  -20.3760   -6.2550 C.ar    1  MOL1        0.1610
     25 C14        15.6070  -17.0270   -7.3400 C.3     1  MOL1        0.0280
     26 N15        15.5710  -15.8660   -6.4270 N.3     1  MOL1       -0.2870
     27 C16        14.4380  -15.9480   -5.4900 C.3     1  MOL1        0.0640
     28 C17        13.7570  -14.7350   -6.0920 C.3     1  MOL1        0.2720
     29 F18        13.7000  -13.6480   -5.2380 F       1  MOL1       -0.2040
     30 F19        12.5530  -15.0230   -6.7150 F       1  MOL1       -0.2040
     31 C20        14.9340  -14.6910   -7.0480 C.3     1  MOL1        0.0640
     32 O25        13.0280  -21.2180   -6.6700 O.3     1  MOL1       -0.4930
     33 C26        12.8820  -22.5760   -6.2680 C.3     1  MOL1        0.0780
@<TRIPOS>BOND
     1     3     2   ar
     2     3     4   ar
     3     2     1   ar
     4    13    12    2
     5    10    11    1
     6    16    15    2
     7     4     5   ar
     8    12    11   am
     9    12     9    1
    10     1     8    1
    11     1     7   ar
    12     8     9    1
    13     8    14    1
    14    15    14   am
    15    15    17    1
    16     5     7   ar
    17     5     6    1
    18    18    17    1
    19    18    19    1
    20    25    20    1
    21    25    26    1
    22    31    26    1
    23    31    28    1
    24    19    20   ar
    25    19    24   ar
    26    30    28    1
    27    32    33    1
    28    32    24    1
    29    20    21   ar
    30    26    27    1
    31    24    23   ar
    32    28    27    1
    33    28    29    1
    34    21    22   ar
    35    23    22   ar
