@<TRIPOS>MOLECULE
L3024_0_out.pdbqt
 33 35 0 0 0
SMALL
GASTEIGER

@<TRIPOS>ATOM
      1 C27         8.5830  -17.6130   -8.6980 C.ar    1  MOL1       -0.0240
      2 C28         9.1050  -16.4030   -8.2080 C.ar    1  MOL1       -0.0570
      3 C29        10.2530  -16.4000   -7.4070 C.ar    1  MOL1       -0.0610
      4 C30        10.8890  -17.6020   -7.0900 C.ar    1  MOL1       -0.0480
      5 C31        10.3820  -18.8130   -7.5740 C.ar    1  MOL1        0.0180
      6 Br32       11.2670  -20.4580   -7.1570 Br      1  MOL1       -0.0510
      7 C33         9.2320  -18.8210   -8.3700 C.ar    1  MOL1       -0.0430
      8  C6         7.3010  -17.6150   -9.5020 C.3     1  MOL1        0.0630
      9  C5         6.7510  -16.1820   -9.6210 C.3     1  MOL1        0.0510
     10  C1         5.1760  -14.3510  -12.6770 C.3     1  MOL1        0.0060
     11  N2         5.5730  -14.6930  -11.3190 N.am    1  MOL1       -0.3590
     12  C3         6.3480  -15.8620  -11.0310 C.2     1  MOL1        0.2220
     13  O4         6.7010  -16.6320  -11.9660 O.2     1  MOL1       -0.2750
     14  N7         6.3100  -18.4980   -8.8770 N.am    1  MOL1       -0.3460
     15  C8         5.4580  -18.0660   -7.8140 C.2     1  MOL1        0.2580
     16  O9         5.5440  -16.8910   -7.3680 O.2     1  MOL1       -0.2710
     17 C10         4.4430  -19.0020   -7.2280 C.3     1  MOL1        0.1670
     18 O11         4.8330  -20.3570   -7.4420 O.3     1  MOL1       -0.4800
     19 C12         4.3290  -21.1150   -8.5020 C.ar    1  MOL1        0.1660
     20 C13         5.1930  -21.8050   -9.3820 C.ar    1  MOL1        0.0120
     21 C21         4.6410  -22.6190  -10.3860 C.ar    1  MOL1       -0.0540
     22 C22         3.2580  -22.7080  -10.5450 C.ar    1  MOL1       -0.0580
     23 C23         2.4080  -21.9860   -9.7070 C.ar    1  MOL1       -0.0160
     24 C24         2.9370  -21.1800   -8.6820 C.ar    1  MOL1        0.1610
     25 C14         6.6970  -21.6910   -9.2740 C.3     1  MOL1        0.0280
     26 N15         7.3500  -22.3990  -10.3950 N.3     1  MOL1       -0.2870
     27 C16         8.2520  -23.4600   -9.9130 C.3     1  MOL1        0.0640
     28 C17         9.4850  -22.7480  -10.4340 C.3     1  MOL1        0.2720
     29 F18        10.1160  -23.4150  -11.4700 F       1  MOL1       -0.2040
     30 F19        10.3460  -22.3210   -9.4350 F       1  MOL1       -0.2040
     31 C20         8.5260  -21.6720  -10.9020 C.3     1  MOL1        0.0640
     32 O25         2.1180  -20.4380   -7.8190 O.3     1  MOL1       -0.4930
     33 C26         0.7730  -20.7760   -7.4970 C.3     1  MOL1        0.0780
@<TRIPOS>BOND
     1    10    11    1
     2    13    12    2
     3    29    28    1
     4    11    12   am
     5    12     9    1
     6    31    28    1
     7    31    26    1
     8    22    21   ar
     9    22    23   ar
    10    28    27    1
    11    28    30    1
    12    26    27    1
    13    26    25    1
    14    21    20   ar
    15    23    24   ar
    16     9     8    1
    17     8    14    1
    18     8     1    1
    19    20    25    1
    20    20    19   ar
    21    14    15   am
    22     1     7   ar
    23     1     2   ar
    24    24    19   ar
    25    24    32    1
    26    19    18    1
    27     7     5   ar
    28     2     3   ar
    29    32    33    1
    30    15    16    2
    31    15    17    1
    32     5     6    1
    33     5     4   ar
    34    18    17    1
    35     3     4   ar
