@<TRIPOS>MOLECULE
L3024_0_out.pdbqt
 33 35 0 0 0
SMALL
GASTEIGER

@<TRIPOS>ATOM
      1 C27         4.8100  -15.3560   -9.2970 C.ar    1  MOL1       -0.0240
      2 C28         5.1710  -15.9290   -8.0630 C.ar    1  MOL1       -0.0570
      3 C29         4.2500  -15.9810   -7.0110 C.ar    1  MOL1       -0.0610
      4 C30         2.9630  -15.4640   -7.1800 C.ar    1  MOL1       -0.0480
      5 C31         2.5900  -14.8950   -8.4030 C.ar    1  MOL1        0.0180
      6 Br32        0.8210  -14.2070   -8.6390 Br      1  MOL1       -0.0510
      7 C33         3.5100  -14.8360   -9.4550 C.ar    1  MOL1       -0.0430
      8  C6         5.8340  -15.2380  -10.4050 C.3     1  MOL1        0.0630
      9  C5         5.1290  -15.1930  -11.7720 C.3     1  MOL1        0.0510
     10  C1         3.2170  -12.1170  -13.2050 C.3     1  MOL1        0.0060
     11  N2         3.5590  -13.4740  -12.8060 N.am    1  MOL1       -0.3590
     12  C3         4.8100  -13.7850  -12.1820 C.2     1  MOL1        0.2220
     13  O4         5.6540  -12.8720  -11.9690 O.2     1  MOL1       -0.2750
     14  N7         6.7780  -16.3590  -10.3470 N.am    1  MOL1       -0.3460
     15  C8         7.1590  -17.1050  -11.5050 C.2     1  MOL1        0.2580
     16  O9         6.6740  -16.8190  -12.6320 O.2     1  MOL1       -0.2710
     17 C10         8.1480  -18.2250  -11.3940 C.3     1  MOL1        0.1670
     18 O11         8.1430  -18.7670  -10.0750 O.3     1  MOL1       -0.4800
     19 C12         8.6680  -20.0300   -9.7910 C.ar    1  MOL1        0.1660
     20 C13         7.8650  -21.1910   -9.8730 C.ar    1  MOL1        0.0120
     21 C21         8.4540  -22.4480   -9.6550 C.ar    1  MOL1       -0.0540
     22 C22         9.8030  -22.5490   -9.3140 C.ar    1  MOL1       -0.0580
     23 C23        10.5810  -21.3980   -9.1840 C.ar    1  MOL1       -0.0160
     24 C24        10.0180  -20.1290   -9.4170 C.ar    1  MOL1        0.1610
     25 C14         6.3880  -21.1170  -10.1880 C.3     1  MOL1        0.0280
     26 N15         5.6120  -21.9130   -9.2150 N.3     1  MOL1       -0.2870
     27 C16         4.1890  -21.5370   -9.2190 C.3     1  MOL1        0.0640
     28 C17         4.2550  -20.9870   -7.8070 C.3     1  MOL1        0.2720
     29 F18         3.5150  -21.7150   -6.8920 F       1  MOL1       -0.2040
     30 F19         4.0520  -19.6180   -7.7320 F       1  MOL1       -0.2040
     31 C20         5.7200  -21.3770   -7.8470 C.3     1  MOL1        0.0640
     32 O25        10.7660  -18.9490   -9.2960 O.3     1  MOL1       -0.4930
     33 C26        11.7580  -18.5250  -10.2240 C.3     1  MOL1        0.0780
@<TRIPOS>BOND
     1    10    11    1
     2    11    12   am
     3    16    15    2
     4    12    13    2
     5    12     9    1
     6     9     8    1
     7    15    17    1
     8    15    14   am
     9    17    18    1
    10     8    14    1
    11     8     1    1
    12    33    32    1
    13    25    20    1
    14    25    26    1
    15    18    19    1
    16    20    19   ar
    17    20    21   ar
    18    19    24   ar
    19    21    22   ar
    20     7     1   ar
    21     7     5   ar
    22    24    32    1
    23    24    23   ar
    24    22    23   ar
    25     1     2   ar
    26    27    26    1
    27    27    28    1
    28    26    31    1
    29     6     5    1
    30     5     4   ar
    31     2     3   ar
    32    31    28    1
    33    28    30    1
    34    28    29    1
    35     4     3   ar
