@<TRIPOS>MOLECULE
L3024_0_out.pdbqt
 33 35 0 0 0
SMALL
GASTEIGER

@<TRIPOS>ATOM
      1 C27        15.0550  -18.3570   -0.3190 C.ar    1  MOL1       -0.0240
      2 C28        13.8990  -17.9050    0.3430 C.ar    1  MOL1       -0.0570
      3 C29        13.1330  -18.7870    1.1110 C.ar    1  MOL1       -0.0610
      4 C30        13.5110  -20.1280    1.2260 C.ar    1  MOL1       -0.0480
      5 C31        14.6610  -20.5900    0.5750 C.ar    1  MOL1        0.0180
      6 Br32       15.1910  -22.4200    0.7510 Br      1  MOL1       -0.0510
      7 C33        15.4260  -19.7110   -0.1980 C.ar    1  MOL1       -0.0430
      8  C6        15.8370  -17.4130   -1.2070 C.3     1  MOL1        0.0630
      9  C5        14.9640  -16.2060   -1.5930 C.3     1  MOL1        0.0510
     10  C1        16.7890  -13.7530    0.8210 C.3     1  MOL1        0.0060
     11  N2        16.4930  -14.8910   -0.0370 N.am    1  MOL1       -0.3590
     12  C3        15.2340  -15.0250   -0.7060 C.2     1  MOL1        0.2220
     13  O4        14.3420  -14.1460   -0.5560 O.2     1  MOL1       -0.2750
     14  N7        16.3060  -18.1150   -2.4070 N.am    1  MOL1       -0.3460
     15  C8        17.2300  -17.5310   -3.3280 C.2     1  MOL1        0.2580
     16  O9        17.6690  -16.3670   -3.1340 O.2     1  MOL1       -0.2710
     17 C10        17.6970  -18.3030   -4.5250 C.3     1  MOL1        0.1670
     18 O11        16.7190  -18.2580   -5.5610 O.3     1  MOL1       -0.4800
     19 C12        17.0600  -18.0090   -6.8930 C.ar    1  MOL1        0.1660
     20 C13        16.7800  -16.7620   -7.4980 C.ar    1  MOL1        0.0120
     21 C21        17.2120  -16.5280   -8.8140 C.ar    1  MOL1       -0.0540
     22 C22        17.8660  -17.5280   -9.5340 C.ar    1  MOL1       -0.0580
     23 C23        18.0960  -18.7740   -8.9520 C.ar    1  MOL1       -0.0160
     24 C24        17.6910  -19.0260   -7.6280 C.ar    1  MOL1        0.1610
     25 C14        16.0270  -15.6730   -6.7680 C.3     1  MOL1        0.0280
     26 N15        14.6150  -15.6420   -7.2020 N.3     1  MOL1       -0.2870
     27 C16        13.9180  -14.4480   -6.6940 C.3     1  MOL1        0.0640
     28 C17        13.0020  -15.2700   -5.8100 C.3     1  MOL1        0.2720
     29 F18        11.6730  -15.2300   -6.1970 F       1  MOL1       -0.2040
     30 F19        13.1980  -15.0590   -4.4550 F       1  MOL1       -0.2040
     31 C20        13.7520  -16.4730   -6.3460 C.3     1  MOL1        0.0640
     32 O25        17.9030  -20.2650   -7.0060 O.3     1  MOL1       -0.4930
     33 C26        19.0400  -21.0930   -7.2260 C.3     1  MOL1        0.0780
@<TRIPOS>BOND
     1    22    23   ar
     2    22    21   ar
     3    23    24   ar
     4    21    20   ar
     5    24    32    1
     6    24    19   ar
     7    20    19   ar
     8    20    25    1
     9    33    32    1
    10    26    25    1
    11    26    27    1
    12    26    31    1
    13    19    18    1
    14    27    28    1
    15    31    28    1
    16    29    28    1
    17    28    30    1
    18    18    17    1
    19    17    15    1
    20    15    16    2
    21    15    14   am
    22    14     8    1
    23     9     8    1
    24     9    12    1
    25     8     1    1
    26    12    13    2
    27    12    11   am
    28     1     7   ar
    29     1     2   ar
    30     7     5   ar
    31    11    10    1
    32     2     3   ar
    33     5     6    1
    34     5     4   ar
    35     3     4   ar
