MODEL 1
REMARK VINA RESULT:    -9.785      0.000      0.000
REMARK INTER + INTRA:         -16.553
REMARK INTER:                 -15.505
REMARK INTRA:                  -1.048
REMARK UNBOUND:                -1.048
REMARK  10 active torsions:
REMARK  status: ('A' for Active; 'I' for Inactive)
REMARK   1   A    between atoms:  C27_1   and   C6_8  
REMARK   2   A    between atoms:  C6_8    and   C5_9  
REMARK   3   A    between atoms:  C5_9    and   C3_12 
REMARK   4   A    between atoms:  C6_8    and   N7_14 
REMARK   5   A    between atoms:  C8_15   and  C10_17 
REMARK   6   A    between atoms: C10_17   and  O11_18 
REMARK   7   A    between atoms: O11_18   and  C12_19 
REMARK   8   A    between atoms: C13_20   and  C14_25 
REMARK   9   A    between atoms: C14_25   and  N15_26 
REMARK   10  A    between atoms: C24_24   and  O25_32 
ROOT
ATOM      1 C27  MOL A   1       7.004 -19.067 -10.002  1.00  0.00    -0.024 A 
ATOM      2 C28  MOL A   1       7.077 -20.003 -11.050  1.00  0.00    -0.057 A 
ATOM      3 C29  MOL A   1       6.483 -21.263 -10.915  1.00  0.00    -0.061 A 
ATOM      4 C30  MOL A   1       5.813 -21.600  -9.736  1.00  0.00    -0.048 A 
ATOM      5 C31  MOL A   1       5.731 -20.677  -8.687  1.00  0.00     0.018 A 
ATOM      6 Br32 MOL A   1       4.796 -21.132  -7.082  1.00  0.00    -0.051 Br
ATOM      7 C33  MOL A   1       6.328 -19.419  -8.816  1.00  0.00    -0.043 A 
ENDROOT
BRANCH   1   8
ATOM      8  C6  MOL A   1       7.710 -17.734 -10.127  1.00  0.00     0.063 C 
BRANCH   8   9
ATOM      9  C5  MOL A   1       8.558 -17.467  -8.871  1.00  0.00     0.051 C 
BRANCH   9  12
ATOM     10  C1  MOL A   1      12.412 -17.685  -8.351  1.00  0.00     0.006 C 
ATOM     11  N2  MOL A   1      11.001 -17.387  -8.154  1.00  0.00    -0.359 N 
ATOM     12  C3  MOL A   1      10.007 -17.780  -9.107  1.00  0.00     0.222 C 
ATOM     13  O4  MOL A   1      10.344 -18.397 -10.154  1.00  0.00    -0.275 OA
ENDBRANCH   9  12
ENDBRANCH   8   9
BRANCH   8  14
ATOM     14  N7  MOL A   1       6.734 -16.659 -10.330  1.00  0.00    -0.346 N 
ATOM     15  C8  MOL A   1       6.261 -16.284 -11.626  1.00  0.00     0.258 C 
ATOM     16  O9  MOL A   1       6.688 -16.874 -12.653  1.00  0.00    -0.271 OA
BRANCH  15  17
ATOM     17 C10  MOL A   1       5.242 -15.194 -11.775  1.00  0.00     0.167 C 
BRANCH  17  18
ATOM     18 O11  MOL A   1       5.036 -14.530 -10.530  1.00  0.00    -0.480 OA
BRANCH  18  19
ATOM     19 C12  MOL A   1       3.780 -14.471  -9.920  1.00  0.00     0.166 A 
ATOM     20 C13  MOL A   1       2.685 -13.849 -10.560  1.00  0.00     0.012 A 
ATOM     21 C21  MOL A   1       1.422 -13.882  -9.945  1.00  0.00    -0.054 A 
ATOM     22 C22  MOL A   1       1.259 -14.480  -8.696  1.00  0.00    -0.058 A 
ATOM     23 C23  MOL A   1       2.352 -15.050  -8.043  1.00  0.00    -0.016 A 
ATOM     24 C24  MOL A   1       3.623 -15.046  -8.648  1.00  0.00     0.161 A 
BRANCH  20  25
ATOM     25 C14  MOL A   1       2.834 -13.144 -11.890  1.00  0.00     0.028 C 
BRANCH  25  26
ATOM     26 N15  MOL A   1       3.608 -11.896 -11.729  1.00  0.00    -0.287 NA
ATOM     27 C16  MOL A   1       2.899 -10.926 -10.878  1.00  0.00     0.064 C 
ATOM     28 C17  MOL A   1       2.707  -9.951 -12.023  1.00  0.00     0.272 C 
ATOM     29 F18  MOL A   1       3.412  -8.769 -11.870  1.00  0.00    -0.204 F 
ATOM     30 F19  MOL A   1       1.382  -9.771 -12.386  1.00  0.00    -0.204 F 
ATOM     31 C20  MOL A   1       3.430 -10.980 -12.869  1.00  0.00     0.064 C 
ENDBRANCH  25  26
ENDBRANCH  20  25
BRANCH  24  32
ATOM     32 O25  MOL A   1       4.747 -15.607  -8.025  1.00  0.00    -0.493 OA
ATOM     33 C26  MOL A   1       4.756 -16.134  -6.702  1.00  0.00     0.078 C 
ENDBRANCH  24  32
ENDBRANCH  18  19
ENDBRANCH  17  18
ENDBRANCH  15  17
ENDBRANCH   8  14
ENDBRANCH   1   8
TORSDOF 10
ENDMDL
MODEL 2
REMARK VINA RESULT:    -9.716      0.882      1.077
REMARK INTER + INTRA:         -16.445
REMARK INTER:                 -15.268
REMARK INTRA:                  -1.177
REMARK UNBOUND:                -1.048
REMARK  10 active torsions:
REMARK  status: ('A' for Active; 'I' for Inactive)
REMARK   1   A    between atoms:  C27_1   and   C6_8  
REMARK   2   A    between atoms:  C6_8    and   C5_9  
REMARK   3   A    between atoms:  C5_9    and   C3_12 
REMARK   4   A    between atoms:  C6_8    and   N7_14 
REMARK   5   A    between atoms:  C8_15   and  C10_17 
REMARK   6   A    between atoms: C10_17   and  O11_18 
REMARK   7   A    between atoms: O11_18   and  C12_19 
REMARK   8   A    between atoms: C13_20   and  C14_25 
REMARK   9   A    between atoms: C14_25   and  N15_26 
REMARK   10  A    between atoms: C24_24   and  O25_32 
ROOT
ATOM      1 C27  MOL A   1       7.073 -18.853  -9.875  1.00  0.00    -0.024 A 
ATOM      2 C28  MOL A   1       7.241 -19.748 -10.947  1.00  0.00    -0.057 A 
ATOM      3 C29  MOL A   1       6.716 -21.043 -10.877  1.00  0.00    -0.061 A 
ATOM      4 C30  MOL A   1       6.019 -21.456  -9.739  1.00  0.00    -0.048 A 
ATOM      5 C31  MOL A   1       5.841 -20.575  -8.667  1.00  0.00     0.018 A 
ATOM      6 Br32 MOL A   1       4.868 -21.135  -7.118  1.00  0.00    -0.051 Br
ATOM      7 C33  MOL A   1       6.369 -19.282  -8.731  1.00  0.00    -0.043 A 
ENDROOT
BRANCH   1   8
ATOM      8  C6  MOL A   1       7.706 -17.479  -9.929  1.00  0.00     0.063 C 
BRANCH   8   9
ATOM      9  C5  MOL A   1       8.454 -17.192  -8.614  1.00  0.00     0.051 C 
BRANCH   9  12
ATOM     10  C1  MOL A   1      11.830 -18.508 -10.043  1.00  0.00     0.006 C 
ATOM     11  N2  MOL A   1      10.424 -18.154  -9.909  1.00  0.00    -0.359 N 
ATOM     12  C3  MOL A   1       9.907 -17.555  -8.717  1.00  0.00     0.222 C 
ATOM     13  O4  MOL A   1      10.673 -17.325  -7.741  1.00  0.00    -0.275 OA
ENDBRANCH   9  12
ENDBRANCH   8   9
BRANCH   8  14
ATOM     14  N7  MOL A   1       6.683 -16.457 -10.175  1.00  0.00    -0.346 N 
ATOM     15  C8  MOL A   1       6.244 -16.109 -11.490  1.00  0.00     0.258 C 
ATOM     16  O9  MOL A   1       6.743 -16.678 -12.497  1.00  0.00    -0.271 OA
BRANCH  15  17
ATOM     17 C10  MOL A   1       5.176 -15.075 -11.684  1.00  0.00     0.167 C 
BRANCH  17  18
ATOM     18 O11  MOL A   1       4.947 -14.361 -10.471  1.00  0.00    -0.480 OA
BRANCH  18  19
ATOM     19 C12  MOL A   1       3.721 -14.408  -9.803  1.00  0.00     0.166 A 
ATOM     20 C13  MOL A   1       2.564 -13.811 -10.353  1.00  0.00     0.012 A 
ATOM     21 C21  MOL A   1       1.336 -13.951  -9.685  1.00  0.00    -0.054 A 
ATOM     22 C22  MOL A   1       1.266 -14.629  -8.469  1.00  0.00    -0.058 A 
ATOM     23 C23  MOL A   1       2.418 -15.175  -7.902  1.00  0.00    -0.016 A 
ATOM     24 C24  MOL A   1       3.656 -15.065  -8.563  1.00  0.00     0.161 A 
BRANCH  20  25
ATOM     25 C14  MOL A   1       2.612 -13.022 -11.643  1.00  0.00     0.028 C 
BRANCH  25  26
ATOM     26 N15  MOL A   1       1.808 -11.788 -11.523  1.00  0.00    -0.287 NA
ATOM     27 C16  MOL A   1       1.850 -10.992 -12.762  1.00  0.00     0.064 C 
ATOM     28 C17  MOL A   1       2.596  -9.855 -12.092  1.00  0.00     0.272 C 
ATOM     29 F18  MOL A   1       1.858  -8.688 -11.994  1.00  0.00    -0.204 F 
ATOM     30 F19  MOL A   1       3.880  -9.668 -12.578  1.00  0.00    -0.204 F 
ATOM     31 C20  MOL A   1       2.544 -10.710 -10.841  1.00  0.00     0.064 C 
ENDBRANCH  25  26
ENDBRANCH  20  25
BRANCH  24  32
ATOM     32 O25  MOL A   1       4.837 -15.598  -8.027  1.00  0.00    -0.493 OA
ATOM     33 C26  MOL A   1       4.899 -16.394  -6.848  1.00  0.00     0.078 C 
ENDBRANCH  24  32
ENDBRANCH  18  19
ENDBRANCH  17  18
ENDBRANCH  15  17
ENDBRANCH   8  14
ENDBRANCH   1   8
TORSDOF 10
ENDMDL
MODEL 3
REMARK VINA RESULT:    -9.641      1.003      1.320
REMARK INTER + INTRA:         -16.325
REMARK INTER:                 -15.093
REMARK INTRA:                  -1.232
REMARK UNBOUND:                -1.048
REMARK  10 active torsions:
REMARK  status: ('A' for Active; 'I' for Inactive)
REMARK   1   A    between atoms:  C27_1   and   C6_8  
REMARK   2   A    between atoms:  C6_8    and   C5_9  
REMARK   3   A    between atoms:  C5_9    and   C3_12 
REMARK   4   A    between atoms:  C6_8    and   N7_14 
REMARK   5   A    between atoms:  C8_15   and  C10_17 
REMARK   6   A    between atoms: C10_17   and  O11_18 
REMARK   7   A    between atoms: O11_18   and  C12_19 
REMARK   8   A    between atoms: C13_20   and  C14_25 
REMARK   9   A    between atoms: C14_25   and  N15_26 
REMARK   10  A    between atoms: C24_24   and  O25_32 
ROOT
ATOM      1 C27  MOL A   1       7.136 -18.707  -9.477  1.00  0.00    -0.024 A 
ATOM      2 C28  MOL A   1       6.316 -18.661  -8.334  1.00  0.00    -0.057 A 
ATOM      3 C29  MOL A   1       5.579 -19.785  -7.946  1.00  0.00    -0.061 A 
ATOM      4 C30  MOL A   1       5.653 -20.964  -8.692  1.00  0.00    -0.048 A 
ATOM      5 C31  MOL A   1       6.467 -21.025  -9.829  1.00  0.00     0.018 A 
ATOM      6 Br32 MOL A   1       6.584 -22.646 -10.838  1.00  0.00    -0.051 Br
ATOM      7 C33  MOL A   1       7.201 -19.901 -10.223  1.00  0.00    -0.043 A 
ENDROOT
BRANCH   1   8
ATOM      8  C6  MOL A   1       7.872 -17.466  -9.931  1.00  0.00     0.063 C 
BRANCH   8   9
ATOM      9  C5  MOL A   1       8.877 -17.024  -8.852  1.00  0.00     0.051 C 
BRANCH   9  12
ATOM     10  C1  MOL A   1      11.437 -19.584  -7.413  1.00  0.00     0.006 C 
ATOM     11  N2  MOL A   1      10.326 -18.651  -7.532  1.00  0.00    -0.359 N 
ATOM     12  C3  MOL A   1      10.037 -17.973  -8.759  1.00  0.00     0.222 C 
ATOM     13  O4  MOL A   1      10.758 -18.171  -9.775  1.00  0.00    -0.275 OA
ENDBRANCH   9  12
ENDBRANCH   8   9
BRANCH   8  14
ATOM     14  N7  MOL A   1       6.920 -16.388 -10.222  1.00  0.00    -0.346 N 
ATOM     15  C8  MOL A   1       6.320 -16.218 -11.508  1.00  0.00     0.258 C 
ATOM     16  O9  MOL A   1       6.607 -17.002 -12.451  1.00  0.00    -0.271 OA
BRANCH  15  17
ATOM     17 C10  MOL A   1       5.333 -15.115 -11.744  1.00  0.00     0.167 C 
BRANCH  17  18
ATOM     18 O11  MOL A   1       5.064 -14.417 -10.530  1.00  0.00    -0.480 OA
BRANCH  18  19
ATOM     19 C12  MOL A   1       3.791 -14.393  -9.956  1.00  0.00     0.166 A 
ATOM     20 C13  MOL A   1       2.700 -13.787 -10.621  1.00  0.00     0.012 A 
ATOM     21 C21  MOL A   1       1.422 -13.855 -10.043  1.00  0.00    -0.054 A 
ATOM     22 C22  MOL A   1       1.236 -14.469  -8.805  1.00  0.00    -0.058 A 
ATOM     23 C23  MOL A   1       2.323 -15.022  -8.126  1.00  0.00    -0.016 A 
ATOM     24 C24  MOL A   1       3.609 -14.984  -8.695  1.00  0.00     0.161 A 
BRANCH  20  25
ATOM     25 C14  MOL A   1       2.872 -13.066 -11.939  1.00  0.00     0.028 C 
BRANCH  25  26
ATOM     26 N15  MOL A   1       3.624 -11.809 -11.745  1.00  0.00    -0.287 NA
ATOM     27 C16  MOL A   1       2.867 -10.846 -10.927  1.00  0.00     0.064 C 
ATOM     28 C17  MOL A   1       2.715  -9.874 -12.080  1.00  0.00     0.272 C 
ATOM     29 F18  MOL A   1       3.399  -8.684 -11.898  1.00  0.00    -0.204 F 
ATOM     30 F19  MOL A   1       1.406  -9.710 -12.502  1.00  0.00    -0.204 F 
ATOM     31 C20  MOL A   1       3.485 -10.896 -12.893  1.00  0.00     0.064 C 
ENDBRANCH  25  26
ENDBRANCH  20  25
BRANCH  24  32
ATOM     32 O25  MOL A   1       4.728 -15.527  -8.045  1.00  0.00    -0.493 OA
ATOM     33 C26  MOL A   1       4.854 -15.659  -6.634  1.00  0.00     0.078 C 
ENDBRANCH  24  32
ENDBRANCH  18  19
ENDBRANCH  17  18
ENDBRANCH  15  17
ENDBRANCH   8  14
ENDBRANCH   1   8
TORSDOF 10
ENDMDL
MODEL 4
REMARK VINA RESULT:    -9.408      5.217      7.665
REMARK INTER + INTRA:         -15.956
REMARK INTER:                 -14.711
REMARK INTRA:                  -1.245
REMARK UNBOUND:                -1.048
REMARK  10 active torsions:
REMARK  status: ('A' for Active; 'I' for Inactive)
REMARK   1   A    between atoms:  C27_1   and   C6_8  
REMARK   2   A    between atoms:  C6_8    and   C5_9  
REMARK   3   A    between atoms:  C5_9    and   C3_12 
REMARK   4   A    between atoms:  C6_8    and   N7_14 
REMARK   5   A    between atoms:  C8_15   and  C10_17 
REMARK   6   A    between atoms: C10_17   and  O11_18 
REMARK   7   A    between atoms: O11_18   and  C12_19 
REMARK   8   A    between atoms: C13_20   and  C14_25 
REMARK   9   A    between atoms: C14_25   and  N15_26 
REMARK   10  A    between atoms: C24_24   and  O25_32 
ROOT
ATOM      1 C27  MOL A   1       7.462 -17.524 -10.081  1.00  0.00    -0.024 A 
ATOM      2 C28  MOL A   1       7.813 -18.257 -11.229  1.00  0.00    -0.057 A 
ATOM      3 C29  MOL A   1       7.408 -17.825 -12.496  1.00  0.00    -0.061 A 
ATOM      4 C30  MOL A   1       6.650 -16.659 -12.631  1.00  0.00    -0.048 A 
ATOM      5 C31  MOL A   1       6.296 -15.918 -11.497  1.00  0.00     0.018 A 
ATOM      6 Br32 MOL A   1       5.276 -14.310 -11.684  1.00  0.00    -0.051 Br
ATOM      7 C33  MOL A   1       6.694 -16.350 -10.228  1.00  0.00    -0.043 A 
ENDROOT
BRANCH   1   8
ATOM      8  C6  MOL A   1       7.841 -18.037  -8.709  1.00  0.00     0.063 C 
BRANCH   8   9
ATOM      9  C5  MOL A   1       9.336 -18.404  -8.678  1.00  0.00     0.051 C 
BRANCH   9  12
ATOM     10  C1  MOL A   1      12.360 -16.541  -7.080  1.00  0.00     0.006 C 
ATOM     11  N2  MOL A   1      11.544 -17.550  -7.740  1.00  0.00    -0.359 N 
ATOM     12  C3  MOL A   1      10.148 -17.349  -7.985  1.00  0.00     0.222 C 
ATOM     13  O4  MOL A   1       9.590 -16.277  -7.622  1.00  0.00    -0.275 OA
ENDBRANCH   9  12
ENDBRANCH   8   9
BRANCH   8  14
ATOM     14  N7  MOL A   1       7.017 -19.197  -8.354  1.00  0.00    -0.346 N 
ATOM     15  C8  MOL A   1       5.732 -19.069  -7.743  1.00  0.00     0.258 C 
ATOM     16  O9  MOL A   1       5.265 -17.930  -7.476  1.00  0.00    -0.271 OA
BRANCH  15  17
ATOM     17 C10  MOL A   1       4.919 -20.288  -7.425  1.00  0.00     0.167 C 
BRANCH  17  18
ATOM     18 O11  MOL A   1       3.650 -20.225  -8.072  1.00  0.00    -0.480 OA
BRANCH  18  19
ATOM     19 C12  MOL A   1       3.140 -21.295  -8.812  1.00  0.00     0.166 A 
ATOM     20 C13  MOL A   1       3.911 -21.921  -9.818  1.00  0.00     0.012 A 
ATOM     21 C21  MOL A   1       3.390 -23.043 -10.482  1.00  0.00    -0.054 A 
ATOM     22 C22  MOL A   1       2.108 -23.507 -10.189  1.00  0.00    -0.058 A 
ATOM     23 C23  MOL A   1       1.329 -22.857  -9.231  1.00  0.00    -0.016 A 
ATOM     24 C24  MOL A   1       1.838 -21.743  -8.538  1.00  0.00     0.161 A 
BRANCH  20  25
ATOM     25 C14  MOL A   1       5.284 -21.413 -10.201  1.00  0.00     0.028 C 
BRANCH  25  26
ATOM     26 N15  MOL A   1       6.194 -22.544 -10.474  1.00  0.00    -0.287 NA
ATOM     27 C16  MOL A   1       7.332 -22.562  -9.539  1.00  0.00     0.064 C 
ATOM     28 C17  MOL A   1       8.335 -22.271 -10.638  1.00  0.00     0.272 C 
ATOM     29 F18  MOL A   1       9.205 -23.318 -10.886  1.00  0.00    -0.204 F 
ATOM     30 F19  MOL A   1       8.958 -21.040 -10.512  1.00  0.00    -0.204 F 
ATOM     31 C20  MOL A   1       7.137 -22.248 -11.567  1.00  0.00     0.064 C 
ENDBRANCH  25  26
ENDBRANCH  20  25
BRANCH  24  32
ATOM     32 O25  MOL A   1       1.087 -21.062  -7.569  1.00  0.00    -0.493 OA
ATOM     33 C26  MOL A   1      -0.184 -20.466  -7.807  1.00  0.00     0.078 C 
ENDBRANCH  24  32
ENDBRANCH  18  19
ENDBRANCH  17  18
ENDBRANCH  15  17
ENDBRANCH   8  14
ENDBRANCH   1   8
TORSDOF 10
ENDMDL
MODEL 5
REMARK VINA RESULT:    -8.761      5.150      7.741
REMARK INTER + INTRA:         -14.931
REMARK INTER:                 -14.310
REMARK INTRA:                  -0.620
REMARK UNBOUND:                -1.048
REMARK  10 active torsions:
REMARK  status: ('A' for Active; 'I' for Inactive)
REMARK   1   A    between atoms:  C27_1   and   C6_8  
REMARK   2   A    between atoms:  C6_8    and   C5_9  
REMARK   3   A    between atoms:  C5_9    and   C3_12 
REMARK   4   A    between atoms:  C6_8    and   N7_14 
REMARK   5   A    between atoms:  C8_15   and  C10_17 
REMARK   6   A    between atoms: C10_17   and  O11_18 
REMARK   7   A    between atoms: O11_18   and  C12_19 
REMARK   8   A    between atoms: C13_20   and  C14_25 
REMARK   9   A    between atoms: C14_25   and  N15_26 
REMARK   10  A    between atoms: C24_24   and  O25_32 
ROOT
ATOM      1 C27  MOL A   1       7.469 -17.131 -10.300  1.00  0.00    -0.024 A 
ATOM      2 C28  MOL A   1       7.678 -17.843 -11.495  1.00  0.00    -0.057 A 
ATOM      3 C29  MOL A   1       7.099 -17.403 -12.691  1.00  0.00    -0.061 A 
ATOM      4 C30  MOL A   1       6.308 -16.252 -12.705  1.00  0.00    -0.048 A 
ATOM      5 C31  MOL A   1       6.095 -15.533 -11.524  1.00  0.00     0.018 A 
ATOM      6 Br32 MOL A   1       5.029 -13.944 -11.548  1.00  0.00    -0.051 Br
ATOM      7 C33  MOL A   1       6.667 -15.972 -10.326  1.00  0.00    -0.043 A 
ENDROOT
BRANCH   1   8
ATOM      8  C6  MOL A   1       8.038 -17.654  -8.998  1.00  0.00     0.063 C 
BRANCH   8   9
ATOM      9  C5  MOL A   1       9.566 -17.796  -9.111  1.00  0.00     0.051 C 
BRANCH   9  12
ATOM     10  C1  MOL A   1      11.079 -21.262  -8.176  1.00  0.00     0.006 C 
ATOM     11  N2  MOL A   1      10.571 -20.130  -8.938  1.00  0.00    -0.359 N 
ATOM     12  C3  MOL A   1      10.073 -18.951  -8.296  1.00  0.00     0.222 C 
ATOM     13  O4  MOL A   1      10.060 -18.874  -7.037  1.00  0.00    -0.275 OA
ENDBRANCH   9  12
ENDBRANCH   8   9
BRANCH   8  14
ATOM     14  N7  MOL A   1       7.423 -18.941  -8.655  1.00  0.00    -0.346 N 
ATOM     15  C8  MOL A   1       6.121 -19.041  -8.074  1.00  0.00     0.258 C 
ATOM     16  O9  MOL A   1       5.455 -18.001  -7.826  1.00  0.00    -0.271 OA
BRANCH  15  17
ATOM     17 C10  MOL A   1       5.529 -20.383  -7.767  1.00  0.00     0.167 C 
BRANCH  17  18
ATOM     18 O11  MOL A   1       4.134 -20.391  -8.057  1.00  0.00    -0.480 OA
BRANCH  18  19
ATOM     19 C12  MOL A   1       3.548 -21.377  -8.856  1.00  0.00     0.166 A 
ATOM     20 C13  MOL A   1       4.245 -21.940  -9.950  1.00  0.00     0.012 A 
ATOM     21 C21  MOL A   1       3.649 -22.983 -10.678  1.00  0.00    -0.054 A 
ATOM     22 C22  MOL A   1       2.366 -23.427 -10.358  1.00  0.00    -0.058 A 
ATOM     23 C23  MOL A   1       1.660 -22.836  -9.310  1.00  0.00    -0.016 A 
ATOM     24 C24  MOL A   1       2.244 -21.802  -8.554  1.00  0.00     0.161 A 
BRANCH  20  25
ATOM     25 C14  MOL A   1       5.615 -21.448 -10.360  1.00  0.00     0.028 C 
BRANCH  25  26
ATOM     26 N15  MOL A   1       6.536 -22.588 -10.553  1.00  0.00    -0.287 NA
ATOM     27 C16  MOL A   1       7.767 -22.429  -9.761  1.00  0.00     0.064 C 
ATOM     28 C17  MOL A   1       8.633 -22.297 -10.999  1.00  0.00     0.272 C 
ATOM     29 F18  MOL A   1       9.513 -23.350 -11.177  1.00  0.00    -0.204 F 
ATOM     30 F19  MOL A   1       9.216 -21.048 -11.141  1.00  0.00    -0.204 F 
ATOM     31 C20  MOL A   1       7.341 -22.450 -11.778  1.00  0.00     0.064 C 
ENDBRANCH  25  26
ENDBRANCH  20  25
BRANCH  24  32
ATOM     32 O25  MOL A   1       1.569 -21.181  -7.494  1.00  0.00    -0.493 OA
ATOM     33 C26  MOL A   1       0.504 -20.250  -7.653  1.00  0.00     0.078 C 
ENDBRANCH  24  32
ENDBRANCH  18  19
ENDBRANCH  17  18
ENDBRANCH  15  17
ENDBRANCH   8  14
ENDBRANCH   1   8
TORSDOF 10
ENDMDL
MODEL 6
REMARK VINA RESULT:    -8.728      2.912      4.288
REMARK INTER + INTRA:         -14.878
REMARK INTER:                 -13.453
REMARK INTRA:                  -1.425
REMARK UNBOUND:                -1.048
REMARK  10 active torsions:
REMARK  status: ('A' for Active; 'I' for Inactive)
REMARK   1   A    between atoms:  C27_1   and   C6_8  
REMARK   2   A    between atoms:  C6_8    and   C5_9  
REMARK   3   A    between atoms:  C5_9    and   C3_12 
REMARK   4   A    between atoms:  C6_8    and   N7_14 
REMARK   5   A    between atoms:  C8_15   and  C10_17 
REMARK   6   A    between atoms: C10_17   and  O11_18 
REMARK   7   A    between atoms: O11_18   and  C12_19 
REMARK   8   A    between atoms: C13_20   and  C14_25 
REMARK   9   A    between atoms: C14_25   and  N15_26 
REMARK   10  A    between atoms: C24_24   and  O25_32 
ROOT
ATOM      1 C27  MOL A   1       7.005 -18.492  -9.431  1.00  0.00    -0.024 A 
ATOM      2 C28  MOL A   1       6.200 -18.680  -8.292  1.00  0.00    -0.057 A 
ATOM      3 C29  MOL A   1       5.597 -19.918  -8.049  1.00  0.00    -0.061 A 
ATOM      4 C30  MOL A   1       5.790 -20.979  -8.938  1.00  0.00    -0.048 A 
ATOM      5 C31  MOL A   1       6.590 -20.807 -10.072  1.00  0.00     0.018 A 
ATOM      6 Br32 MOL A   1       6.872 -22.266 -11.277  1.00  0.00    -0.051 Br
ATOM      7 C33  MOL A   1       7.191 -19.569 -10.322  1.00  0.00    -0.043 A 
ENDROOT
BRANCH   1   8
ATOM      8  C6  MOL A   1       7.594 -17.130  -9.725  1.00  0.00     0.063 C 
BRANCH   8   9
ATOM      9  C5  MOL A   1       8.214 -16.536  -8.447  1.00  0.00     0.051 C 
BRANCH   9  12
ATOM     10  C1  MOL A   1      11.630 -18.300  -9.071  1.00  0.00     0.006 C 
ATOM     11  N2  MOL A   1      10.241 -17.883  -9.197  1.00  0.00    -0.359 N 
ATOM     12  C3  MOL A   1       9.646 -16.954  -8.284  1.00  0.00     0.222 C 
ATOM     13  O4  MOL A   1      10.326 -16.478  -7.335  1.00  0.00    -0.275 OA
ENDBRANCH   9  12
ENDBRANCH   8   9
BRANCH   8  14
ATOM     14  N7  MOL A   1       6.564 -16.235 -10.263  1.00  0.00    -0.346 N 
ATOM     15  C8  MOL A   1       6.263 -16.159 -11.658  1.00  0.00     0.258 C 
ATOM     16  O9  MOL A   1       6.897 -16.868 -12.484  1.00  0.00    -0.271 OA
BRANCH  15  17
ATOM     17 C10  MOL A   1       5.181 -15.247 -12.152  1.00  0.00     0.167 C 
BRANCH  17  18
ATOM     18 O11  MOL A   1       4.865 -14.267 -11.166  1.00  0.00    -0.480 OA
BRANCH  18  19
ATOM     19 C12  MOL A   1       3.736 -13.451 -11.266  1.00  0.00     0.166 A 
ATOM     20 C13  MOL A   1       2.588 -13.690 -10.476  1.00  0.00     0.012 A 
ATOM     21 C21  MOL A   1       1.505 -12.798 -10.552  1.00  0.00    -0.054 A 
ATOM     22 C22  MOL A   1       1.541 -11.715 -11.431  1.00  0.00    -0.058 A 
ATOM     23 C23  MOL A   1       2.654 -11.510 -12.246  1.00  0.00    -0.016 A 
ATOM     24 C24  MOL A   1       3.758 -12.379 -12.173  1.00  0.00     0.161 A 
BRANCH  20  25
ATOM     25 C14  MOL A   1       2.492 -14.883  -9.551  1.00  0.00     0.028 C 
BRANCH  25  26
ATOM     26 N15  MOL A   1       3.135 -14.584  -8.255  1.00  0.00    -0.287 NA
ATOM     27 C16  MOL A   1       4.323 -15.426  -8.033  1.00  0.00     0.064 C 
ATOM     28 C17  MOL A   1       3.681 -16.150  -6.866  1.00  0.00     0.272 C 
ATOM     29 F18  MOL A   1       4.290 -15.892  -5.650  1.00  0.00    -0.204 F 
ATOM     30 F19  MOL A   1       3.450 -17.495  -7.103  1.00  0.00    -0.204 F 
ATOM     31 C20  MOL A   1       2.473 -15.275  -7.135  1.00  0.00     0.064 C 
ENDBRANCH  25  26
ENDBRANCH  20  25
BRANCH  24  32
ATOM     32 O25  MOL A   1       4.896 -12.208 -12.976  1.00  0.00    -0.493 OA
ATOM     33 C26  MOL A   1       4.958 -12.524 -14.362  1.00  0.00     0.078 C 
ENDBRANCH  24  32
ENDBRANCH  18  19
ENDBRANCH  17  18
ENDBRANCH  15  17
ENDBRANCH   8  14
ENDBRANCH   1   8
TORSDOF 10
ENDMDL
MODEL 7
REMARK VINA RESULT:    -8.684      3.045      5.534
REMARK INTER + INTRA:         -14.809
REMARK INTER:                 -14.014
REMARK INTRA:                  -0.794
REMARK UNBOUND:                -1.048
REMARK  10 active torsions:
REMARK  status: ('A' for Active; 'I' for Inactive)
REMARK   1   A    between atoms:  C27_1   and   C6_8  
REMARK   2   A    between atoms:  C6_8    and   C5_9  
REMARK   3   A    between atoms:  C5_9    and   C3_12 
REMARK   4   A    between atoms:  C6_8    and   N7_14 
REMARK   5   A    between atoms:  C8_15   and  C10_17 
REMARK   6   A    between atoms: C10_17   and  O11_18 
REMARK   7   A    between atoms: O11_18   and  C12_19 
REMARK   8   A    between atoms: C13_20   and  C14_25 
REMARK   9   A    between atoms: C14_25   and  N15_26 
REMARK   10  A    between atoms: C24_24   and  O25_32 
ROOT
ATOM      1 C27  MOL A   1       3.634 -21.847  -9.371  1.00  0.00    -0.024 A 
ATOM      2 C28  MOL A   1       3.291 -22.813 -10.335  1.00  0.00    -0.057 A 
ATOM      3 C29  MOL A   1       1.956 -23.195 -10.511  1.00  0.00    -0.061 A 
ATOM      4 C30  MOL A   1       0.953 -22.619  -9.727  1.00  0.00    -0.048 A 
ATOM      5 C31  MOL A   1       1.280 -21.655  -8.767  1.00  0.00     0.018 A 
ATOM      6 Br32 MOL A   1      -0.097 -20.850  -7.710  1.00  0.00    -0.051 Br
ATOM      7 C33  MOL A   1       2.613 -21.274  -8.585  1.00  0.00    -0.043 A 
ENDROOT
BRANCH   1   8
ATOM      8  C6  MOL A   1       5.086 -21.493  -9.138  1.00  0.00     0.063 C 
BRANCH   8   9
ATOM      9  C5  MOL A   1       5.288 -21.027  -7.685  1.00  0.00     0.051 C 
BRANCH   9  12
ATOM     10  C1  MOL A   1       4.941 -17.173  -7.237  1.00  0.00     0.006 C 
ATOM     11  N2  MOL A   1       4.632 -18.593  -7.319  1.00  0.00    -0.359 N 
ATOM     12  C3  MOL A   1       5.637 -19.568  -7.618  1.00  0.00     0.222 C 
ATOM     13  O4  MOL A   1       6.827 -19.206  -7.826  1.00  0.00    -0.275 OA
ENDBRANCH   9  12
ENDBRANCH   8   9
BRANCH   8  14
ATOM     14  N7  MOL A   1       5.513 -20.451 -10.078  1.00  0.00    -0.346 N 
ATOM     15  C8  MOL A   1       6.753 -20.515 -10.786  1.00  0.00     0.258 C 
ATOM     16  O9  MOL A   1       7.536 -21.486 -10.608  1.00  0.00    -0.271 OA
BRANCH  15  17
ATOM     17 C10  MOL A   1       7.129 -19.436 -11.756  1.00  0.00     0.167 C 
BRANCH  17  18
ATOM     18 O11  MOL A   1       8.403 -18.888 -11.424  1.00  0.00    -0.480 OA
BRANCH  18  19
ATOM     19 C12  MOL A   1       8.573 -17.999 -10.360  1.00  0.00     0.166 A 
ATOM     20 C13  MOL A   1       7.752 -16.856 -10.224  1.00  0.00     0.012 A 
ATOM     21 C21  MOL A   1       7.906 -16.032  -9.096  1.00  0.00    -0.054 A 
ATOM     22 C22  MOL A   1       8.889 -16.309  -8.146  1.00  0.00    -0.058 A 
ATOM     23 C23  MOL A   1       9.731 -17.409  -8.308  1.00  0.00    -0.016 A 
ATOM     24 C24  MOL A   1       9.583 -18.260  -9.419  1.00  0.00     0.161 A 
BRANCH  20  25
ATOM     25 C14  MOL A   1       6.712 -16.494 -11.261  1.00  0.00     0.028 C 
BRANCH  25  26
ATOM     26 N15  MOL A   1       6.231 -15.113 -11.049  1.00  0.00    -0.287 NA
ATOM     27 C16  MOL A   1       4.905 -15.094 -10.408  1.00  0.00     0.064 C 
ATOM     28 C17  MOL A   1       4.241 -14.497 -11.633  1.00  0.00     0.272 C 
ATOM     29 F18  MOL A   1       3.768 -13.211 -11.438  1.00  0.00    -0.204 F 
ATOM     30 F19  MOL A   1       3.329 -15.344 -12.242  1.00  0.00    -0.204 F 
ATOM     31 C20  MOL A   1       5.620 -14.545 -12.263  1.00  0.00     0.064 C 
ENDBRANCH  25  26
ENDBRANCH  20  25
BRANCH  24  32
ATOM     32 O25  MOL A   1      10.410 -19.375  -9.620  1.00  0.00    -0.493 OA
ATOM     33 C26  MOL A   1      10.587 -20.426  -8.677  1.00  0.00     0.078 C 
ENDBRANCH  24  32
ENDBRANCH  18  19
ENDBRANCH  17  18
ENDBRANCH  15  17
ENDBRANCH   8  14
ENDBRANCH   1   8
TORSDOF 10
ENDMDL
MODEL 8
REMARK VINA RESULT:    -8.677      4.676      7.752
REMARK INTER + INTRA:         -14.798
REMARK INTER:                 -13.732
REMARK INTRA:                  -1.066
REMARK UNBOUND:                -1.048
REMARK  10 active torsions:
REMARK  status: ('A' for Active; 'I' for Inactive)
REMARK   1   A    between atoms:  C27_1   and   C6_8  
REMARK   2   A    between atoms:  C6_8    and   C5_9  
REMARK   3   A    between atoms:  C5_9    and   C3_12 
REMARK   4   A    between atoms:  C6_8    and   N7_14 
REMARK   5   A    between atoms:  C8_15   and  C10_17 
REMARK   6   A    between atoms: C10_17   and  O11_18 
REMARK   7   A    between atoms: O11_18   and  C12_19 
REMARK   8   A    between atoms: C13_20   and  C14_25 
REMARK   9   A    between atoms: C14_25   and  N15_26 
REMARK   10  A    between atoms: C24_24   and  O25_32 
ROOT
ATOM      1 C27  MOL A   1       6.220 -15.951 -10.316  1.00  0.00    -0.024 A 
ATOM      2 C28  MOL A   1       6.552 -16.205 -11.659  1.00  0.00    -0.057 A 
ATOM      3 C29  MOL A   1       5.853 -15.572 -12.693  1.00  0.00    -0.061 A 
ATOM      4 C30  MOL A   1       4.817 -14.682 -12.397  1.00  0.00    -0.048 A 
ATOM      5 C31  MOL A   1       4.478 -14.419 -11.065  1.00  0.00     0.018 A 
ATOM      6 Br32 MOL A   1       3.075 -13.183 -10.660  1.00  0.00    -0.051 Br
ATOM      7 C33  MOL A   1       5.171 -15.053 -10.029  1.00  0.00    -0.043 A 
ENDROOT
BRANCH   1   8
ATOM      8  C6  MOL A   1       6.932 -16.694  -9.207  1.00  0.00     0.063 C 
BRANCH   8   9
ATOM      9  C5  MOL A   1       8.301 -17.194  -9.701  1.00  0.00     0.051 C 
BRANCH   9  12
ATOM     10  C1  MOL A   1      11.657 -17.563  -7.758  1.00  0.00     0.006 C 
ATOM     11  N2  MOL A   1      10.605 -17.722  -8.751  1.00  0.00    -0.359 N 
ATOM     12  C3  MOL A   1       9.363 -17.017  -8.654  1.00  0.00     0.222 C 
ATOM     13  O4  MOL A   1       9.153 -16.236  -7.686  1.00  0.00    -0.275 OA
ENDBRANCH   9  12
ENDBRANCH   8   9
BRANCH   8  14
ATOM     14  N7  MOL A   1       6.111 -17.816  -8.738  1.00  0.00    -0.346 N 
ATOM     15  C8  MOL A   1       5.295 -17.736  -7.567  1.00  0.00     0.258 C 
ATOM     16  O9  MOL A   1       5.267 -16.678  -6.884  1.00  0.00    -0.271 OA
BRANCH  15  17
ATOM     17 C10  MOL A   1       4.455 -18.904  -7.147  1.00  0.00     0.167 C 
BRANCH  17  18
ATOM     18 O11  MOL A   1       5.212 -20.110  -7.205  1.00  0.00    -0.480 OA
BRANCH  18  19
ATOM     19 C12  MOL A   1       5.251 -20.907  -8.352  1.00  0.00     0.166 A 
ATOM     20 C13  MOL A   1       4.062 -21.358  -8.969  1.00  0.00     0.012 A 
ATOM     21 C21  MOL A   1       4.145 -22.090 -10.166  1.00  0.00    -0.054 A 
ATOM     22 C22  MOL A   1       5.387 -22.410 -10.714  1.00  0.00    -0.058 A 
ATOM     23 C23  MOL A   1       6.561 -22.007 -10.077  1.00  0.00    -0.016 A 
ATOM     24 C24  MOL A   1       6.502 -21.256  -8.888  1.00  0.00     0.161 A 
BRANCH  20  25
ATOM     25 C14  MOL A   1       2.699 -21.076  -8.375  1.00  0.00     0.028 C 
BRANCH  25  26
ATOM     26 N15  MOL A   1       1.853 -22.285  -8.429  1.00  0.00    -0.287 NA
ATOM     27 C16  MOL A   1       0.503 -21.979  -8.933  1.00  0.00     0.064 C 
ATOM     28 C17  MOL A   1      -0.148 -22.314  -7.605  1.00  0.00     0.272 C 
ATOM     29 F18  MOL A   1      -0.960 -23.433  -7.650  1.00  0.00    -0.204 F 
ATOM     30 F19  MOL A   1      -0.730 -21.223  -6.979  1.00  0.00    -0.204 F 
ATOM     31 C20  MOL A   1       1.259 -22.606  -7.120  1.00  0.00     0.064 C 
ENDBRANCH  25  26
ENDBRANCH  20  25
BRANCH  24  32
ATOM     32 O25  MOL A   1       7.657 -20.832  -8.216  1.00  0.00    -0.493 OA
ATOM     33 C26  MOL A   1       8.978 -20.950  -8.732  1.00  0.00     0.078 C 
ENDBRANCH  24  32
ENDBRANCH  18  19
ENDBRANCH  17  18
ENDBRANCH  15  17
ENDBRANCH   8  14
ENDBRANCH   1   8
TORSDOF 10
ENDMDL
MODEL 9
REMARK VINA RESULT:    -8.600      2.629      3.997
REMARK INTER + INTRA:         -14.675
REMARK INTER:                 -13.442
REMARK INTRA:                  -1.234
REMARK UNBOUND:                -1.048
REMARK  10 active torsions:
REMARK  status: ('A' for Active; 'I' for Inactive)
REMARK   1   A    between atoms:  C27_1   and   C6_8  
REMARK   2   A    between atoms:  C6_8    and   C5_9  
REMARK   3   A    between atoms:  C5_9    and   C3_12 
REMARK   4   A    between atoms:  C6_8    and   N7_14 
REMARK   5   A    between atoms:  C8_15   and  C10_17 
REMARK   6   A    between atoms: C10_17   and  O11_18 
REMARK   7   A    between atoms: O11_18   and  C12_19 
REMARK   8   A    between atoms: C13_20   and  C14_25 
REMARK   9   A    between atoms: C14_25   and  N15_26 
REMARK   10  A    between atoms: C24_24   and  O25_32 
ROOT
ATOM      1 C27  MOL A   1       7.192 -18.808 -10.124  1.00  0.00    -0.024 A 
ATOM      2 C28  MOL A   1       7.188 -19.731 -11.186  1.00  0.00    -0.057 A 
ATOM      3 C29  MOL A   1       6.523 -20.955 -11.057  1.00  0.00    -0.061 A 
ATOM      4 C30  MOL A   1       5.857 -21.270  -9.869  1.00  0.00    -0.048 A 
ATOM      5 C31  MOL A   1       5.850 -20.359  -8.807  1.00  0.00     0.018 A 
ATOM      6 Br32 MOL A   1       4.919 -20.782  -7.189  1.00  0.00    -0.051 Br
ATOM      7 C33  MOL A   1       6.518 -19.137  -8.930  1.00  0.00    -0.043 A 
ENDROOT
BRANCH   1   8
ATOM      8  C6  MOL A   1       7.974 -17.518 -10.244  1.00  0.00     0.063 C 
BRANCH   8   9
ATOM      9  C5  MOL A   1       9.099 -17.483  -9.194  1.00  0.00     0.051 C 
BRANCH   9  12
ATOM     10  C1  MOL A   1      10.965 -20.837  -8.533  1.00  0.00     0.006 C 
ATOM     11  N2  MOL A   1      10.069 -19.698  -8.395  1.00  0.00    -0.359 N 
ATOM     12  C3  MOL A   1      10.042 -18.639  -9.358  1.00  0.00     0.222 C 
ATOM     13  O4  MOL A   1      10.811 -18.673 -10.358  1.00  0.00    -0.275 OA
ENDBRANCH   9  12
ENDBRANCH   8   9
BRANCH   8  14
ATOM     14  N7  MOL A   1       7.081 -16.365 -10.083  1.00  0.00    -0.346 N 
ATOM     15  C8  MOL A   1       6.331 -15.815 -11.169  1.00  0.00     0.258 C 
ATOM     16  O9  MOL A   1       6.428 -16.312 -12.323  1.00  0.00    -0.271 OA
BRANCH  15  17
ATOM     17 C10  MOL A   1       5.413 -14.652 -10.944  1.00  0.00     0.167 C 
BRANCH  17  18
ATOM     18 O11  MOL A   1       4.333 -14.682 -11.874  1.00  0.00    -0.480 OA
BRANCH  18  19
ATOM     19 C12  MOL A   1       3.429 -13.623 -11.994  1.00  0.00     0.166 A 
ATOM     20 C13  MOL A   1       2.265 -13.562 -11.194  1.00  0.00     0.012 A 
ATOM     21 C21  MOL A   1       1.424 -12.441 -11.291  1.00  0.00    -0.054 A 
ATOM     22 C22  MOL A   1       1.706 -11.421 -12.200  1.00  0.00    -0.058 A 
ATOM     23 C23  MOL A   1       2.829 -11.507 -13.024  1.00  0.00    -0.016 A 
ATOM     24 C24  MOL A   1       3.696 -12.611 -12.931  1.00  0.00     0.161 A 
BRANCH  20  25
ATOM     25 C14  MOL A   1       1.897 -14.674 -10.236  1.00  0.00     0.028 C 
BRANCH  25  26
ATOM     26 N15  MOL A   1       2.039 -14.217  -8.838  1.00  0.00    -0.287 NA
ATOM     27 C16  MOL A   1       3.338 -14.613  -8.268  1.00  0.00     0.064 C 
ATOM     28 C17  MOL A   1       2.695 -15.550  -7.265  1.00  0.00     0.272 C 
ATOM     29 F18  MOL A   1       2.840 -15.141  -5.950  1.00  0.00    -0.204 F 
ATOM     30 F19  MOL A   1       2.999 -16.885  -7.474  1.00  0.00    -0.204 F 
ATOM     31 C20  MOL A   1       1.378 -15.128  -7.887  1.00  0.00     0.064 C 
ENDBRANCH  25  26
ENDBRANCH  20  25
BRANCH  24  32
ATOM     32 O25  MOL A   1       4.834 -12.736 -13.741  1.00  0.00    -0.493 OA
ATOM     33 C26  MOL A   1       4.979 -13.696 -14.783  1.00  0.00     0.078 C 
ENDBRANCH  24  32
ENDBRANCH  18  19
ENDBRANCH  17  18
ENDBRANCH  15  17
ENDBRANCH   8  14
ENDBRANCH   1   8
TORSDOF 10
ENDMDL
MODEL 10
REMARK VINA RESULT:    -8.590      2.543      3.759
REMARK INTER + INTRA:         -14.660
REMARK INTER:                 -13.956
REMARK INTRA:                  -0.704
REMARK UNBOUND:                -1.048
REMARK  10 active torsions:
REMARK  status: ('A' for Active; 'I' for Inactive)
REMARK   1   A    between atoms:  C27_1   and   C6_8  
REMARK   2   A    between atoms:  C6_8    and   C5_9  
REMARK   3   A    between atoms:  C5_9    and   C3_12 
REMARK   4   A    between atoms:  C6_8    and   N7_14 
REMARK   5   A    between atoms:  C8_15   and  C10_17 
REMARK   6   A    between atoms: C10_17   and  O11_18 
REMARK   7   A    between atoms: O11_18   and  C12_19 
REMARK   8   A    between atoms: C13_20   and  C14_25 
REMARK   9   A    between atoms: C14_25   and  N15_26 
REMARK   10  A    between atoms: C24_24   and  O25_32 
ROOT
ATOM      1 C27  MOL A   1       5.589 -21.331  -9.114  1.00  0.00    -0.024 A 
ATOM      2 C28  MOL A   1       5.524 -21.252  -7.711  1.00  0.00    -0.057 A 
ATOM      3 C29  MOL A   1       4.349 -21.601  -7.036  1.00  0.00    -0.061 A 
ATOM      4 C30  MOL A   1       3.230 -22.032  -7.754  1.00  0.00    -0.048 A 
ATOM      5 C31  MOL A   1       3.283 -22.119  -9.150  1.00  0.00     0.018 A 
ATOM      6 Br32 MOL A   1       1.758 -22.730 -10.130  1.00  0.00    -0.051 Br
ATOM      7 C33  MOL A   1       4.454 -21.765  -9.828  1.00  0.00    -0.043 A 
ENDROOT
BRANCH   1   8
ATOM      8  C6  MOL A   1       6.839 -20.882  -9.840  1.00  0.00     0.063 C 
BRANCH   8   9
ATOM      9  C5  MOL A   1       8.035 -20.863  -8.871  1.00  0.00     0.051 C 
BRANCH   9  12
ATOM     10  C1  MOL A   1       9.941 -23.614 -10.865  1.00  0.00     0.006 C 
ATOM     11  N2  MOL A   1       8.898 -22.714 -10.393  1.00  0.00    -0.359 N 
ATOM     12  C3  MOL A   1       9.128 -21.786  -9.328  1.00  0.00     0.222 C 
ATOM     13  O4  MOL A   1      10.256 -21.735  -8.765  1.00  0.00    -0.275 OA
ENDBRANCH   9  12
ENDBRANCH   8   9
BRANCH   8  14
ATOM     14  N7  MOL A   1       6.634 -19.555 -10.432  1.00  0.00    -0.346 N 
ATOM     15  C8  MOL A   1       7.663 -18.861 -11.140  1.00  0.00     0.258 C 
ATOM     16  O9  MOL A   1       8.805 -19.378 -11.268  1.00  0.00    -0.271 OA
BRANCH  15  17
ATOM     17 C10  MOL A   1       7.392 -17.518 -11.748  1.00  0.00     0.167 C 
BRANCH  17  18
ATOM     18 O11  MOL A   1       7.570 -16.487 -10.780  1.00  0.00    -0.480 OA
BRANCH  18  19
ATOM     19 C12  MOL A   1       6.630 -16.242  -9.775  1.00  0.00     0.166 A 
ATOM     20 C13  MOL A   1       5.452 -15.506 -10.040  1.00  0.00     0.012 A 
ATOM     21 C21  MOL A   1       4.497 -15.353  -9.021  1.00  0.00    -0.054 A 
ATOM     22 C22  MOL A   1       4.727 -15.878  -7.749  1.00  0.00    -0.058 A 
ATOM     23 C23  MOL A   1       5.913 -16.560  -7.477  1.00  0.00    -0.016 A 
ATOM     24 C24  MOL A   1       6.876 -16.744  -8.487  1.00  0.00     0.161 A 
BRANCH  20  25
ATOM     25 C14  MOL A   1       5.192 -14.877 -11.390  1.00  0.00     0.028 C 
BRANCH  25  26
ATOM     26 N15  MOL A   1       4.013 -13.989 -11.328  1.00  0.00    -0.287 NA
ATOM     27 C16  MOL A   1       3.232 -14.036 -12.575  1.00  0.00     0.064 C 
ATOM     28 C17  MOL A   1       3.551 -12.594 -12.915  1.00  0.00     0.272 C 
ATOM     29 F18  MOL A   1       2.448 -11.758 -12.879  1.00  0.00    -0.204 F 
ATOM     30 F19  MOL A   1       4.329 -12.448 -14.052  1.00  0.00    -0.204 F 
ATOM     31 C20  MOL A   1       4.355 -12.589 -11.630  1.00  0.00     0.064 C 
ENDBRANCH  25  26
ENDBRANCH  20  25
BRANCH  24  32
ATOM     32 O25  MOL A   1       8.080 -17.423  -8.254  1.00  0.00    -0.493 OA
ATOM     33 C26  MOL A   1       9.345 -16.789  -8.097  1.00  0.00     0.078 C 
ENDBRANCH  24  32
ENDBRANCH  18  19
ENDBRANCH  17  18
ENDBRANCH  15  17
ENDBRANCH   8  14
ENDBRANCH   1   8
TORSDOF 10
ENDMDL
MODEL 11
REMARK VINA RESULT:    -8.565      0.932      1.194
REMARK INTER + INTRA:         -14.621
REMARK INTER:                 -14.041
REMARK INTRA:                  -0.580
REMARK UNBOUND:                -1.048
REMARK  10 active torsions:
REMARK  status: ('A' for Active; 'I' for Inactive)
REMARK   1   A    between atoms:  C27_1   and   C6_8  
REMARK   2   A    between atoms:  C6_8    and   C5_9  
REMARK   3   A    between atoms:  C5_9    and   C3_12 
REMARK   4   A    between atoms:  C6_8    and   N7_14 
REMARK   5   A    between atoms:  C8_15   and  C10_17 
REMARK   6   A    between atoms: C10_17   and  O11_18 
REMARK   7   A    between atoms: O11_18   and  C12_19 
REMARK   8   A    between atoms: C13_20   and  C14_25 
REMARK   9   A    between atoms: C14_25   and  N15_26 
REMARK   10  A    between atoms: C24_24   and  O25_32 
ROOT
ATOM      1 C27  MOL A   1       6.848 -19.628  -9.794  1.00  0.00    -0.024 A 
ATOM      2 C28  MOL A   1       6.943 -20.537 -10.863  1.00  0.00    -0.057 A 
ATOM      3 C29  MOL A   1       6.265 -21.759 -10.816  1.00  0.00    -0.061 A 
ATOM      4 C30  MOL A   1       5.486 -22.086  -9.702  1.00  0.00    -0.048 A 
ATOM      5 C31  MOL A   1       5.379 -21.190  -8.633  1.00  0.00     0.018 A 
ATOM      6 Br32 MOL A   1       4.295 -21.628  -7.119  1.00  0.00    -0.051 Br
ATOM      7 C33  MOL A   1       6.061 -19.969  -8.675  1.00  0.00    -0.043 A 
ENDROOT
BRANCH   1   8
ATOM      8  C6  MOL A   1       7.642 -18.340  -9.821  1.00  0.00     0.063 C 
BRANCH   8   9
ATOM      9  C5  MOL A   1       8.451 -18.192  -8.519  1.00  0.00     0.051 C 
BRANCH   9  12
ATOM     10  C1  MOL A   1      11.608 -20.190  -7.419  1.00  0.00     0.006 C 
ATOM     11  N2  MOL A   1      10.361 -19.440  -7.388  1.00  0.00    -0.359 N 
ATOM     12  C3  MOL A   1       9.743 -18.953  -8.584  1.00  0.00     0.222 C 
ATOM     13  O4  MOL A   1      10.282 -19.164  -9.705  1.00  0.00    -0.275 OA
ENDBRANCH   9  12
ENDBRANCH   8   9
BRANCH   8  14
ATOM     14  N7  MOL A   1       6.746 -17.194 -10.006  1.00  0.00    -0.346 N 
ATOM     15  C8  MOL A   1       6.557 -16.563 -11.274  1.00  0.00     0.258 C 
ATOM     16  O9  MOL A   1       7.176 -16.978 -12.289  1.00  0.00    -0.271 OA
BRANCH  15  17
ATOM     17 C10  MOL A   1       5.608 -15.410 -11.413  1.00  0.00     0.167 C 
BRANCH  17  18
ATOM     18 O11  MOL A   1       5.354 -14.817 -10.142  1.00  0.00    -0.480 OA
BRANCH  18  19
ATOM     19 C12  MOL A   1       4.060 -14.680  -9.633  1.00  0.00     0.166 A 
ATOM     20 C13  MOL A   1       3.094 -13.887 -10.294  1.00  0.00     0.012 A 
ATOM     21 C21  MOL A   1       1.783 -13.842  -9.791  1.00  0.00    -0.054 A 
ATOM     22 C22  MOL A   1       1.448 -14.531  -8.626  1.00  0.00    -0.058 A 
ATOM     23 C23  MOL A   1       2.415 -15.272  -7.947  1.00  0.00    -0.016 A 
ATOM     24 C24  MOL A   1       3.730 -15.349  -8.443  1.00  0.00     0.161 A 
BRANCH  20  25
ATOM     25 C14  MOL A   1       3.434 -13.083 -11.530  1.00  0.00     0.028 C 
BRANCH  25  26
ATOM     26 N15  MOL A   1       2.236 -12.381 -12.034  1.00  0.00    -0.287 NA
ATOM     27 C16  MOL A   1       2.579 -11.419 -13.096  1.00  0.00     0.064 C 
ATOM     28 C17  MOL A   1       2.183 -10.228 -12.246  1.00  0.00     0.272 C 
ATOM     29 F18  MOL A   1       1.074  -9.550 -12.722  1.00  0.00    -0.204 F 
ATOM     30 F19  MOL A   1       3.244  -9.403 -11.913  1.00  0.00    -0.204 F 
ATOM     31 C20  MOL A   1       1.854 -11.248 -11.173  1.00  0.00     0.064 C 
ENDBRANCH  25  26
ENDBRANCH  20  25
BRANCH  24  32
ATOM     32 O25  MOL A   1       4.731 -16.083  -7.790  1.00  0.00    -0.493 OA
ATOM     33 C26  MOL A   1       5.298 -15.730  -6.533  1.00  0.00     0.078 C 
ENDBRANCH  24  32
ENDBRANCH  18  19
ENDBRANCH  17  18
ENDBRANCH  15  17
ENDBRANCH   8  14
ENDBRANCH   1   8
TORSDOF 10
ENDMDL
MODEL 12
REMARK VINA RESULT:    -8.560      3.775      8.429
REMARK INTER + INTRA:         -14.613
REMARK INTER:                 -13.584
REMARK INTRA:                  -1.029
REMARK UNBOUND:                -1.048
REMARK  10 active torsions:
REMARK  status: ('A' for Active; 'I' for Inactive)
REMARK   1   A    between atoms:  C27_1   and   C6_8  
REMARK   2   A    between atoms:  C6_8    and   C5_9  
REMARK   3   A    between atoms:  C5_9    and   C3_12 
REMARK   4   A    between atoms:  C6_8    and   N7_14 
REMARK   5   A    between atoms:  C8_15   and  C10_17 
REMARK   6   A    between atoms: C10_17   and  O11_18 
REMARK   7   A    between atoms: O11_18   and  C12_19 
REMARK   8   A    between atoms: C13_20   and  C14_25 
REMARK   9   A    between atoms: C14_25   and  N15_26 
REMARK   10  A    between atoms: C24_24   and  O25_32 
ROOT
ATOM      1 C27  MOL A   1       3.714 -14.606 -10.151  1.00  0.00    -0.024 A 
ATOM      2 C28  MOL A   1       2.348 -14.285 -10.252  1.00  0.00    -0.057 A 
ATOM      3 C29  MOL A   1       1.507 -14.413  -9.141  1.00  0.00    -0.061 A 
ATOM      4 C30  MOL A   1       2.019 -14.862  -7.921  1.00  0.00    -0.048 A 
ATOM      5 C31  MOL A   1       3.377 -15.181  -7.806  1.00  0.00     0.018 A 
ATOM      6 Br32 MOL A   1       4.082 -15.775  -6.130  1.00  0.00    -0.051 Br
ATOM      7 C33  MOL A   1       4.220 -15.060  -8.916  1.00  0.00    -0.043 A 
ENDROOT
BRANCH   1   8
ATOM      8  C6  MOL A   1       4.601 -14.535 -11.375  1.00  0.00     0.063 C 
BRANCH   8   9
ATOM      9  C5  MOL A   1       3.782 -14.072 -12.593  1.00  0.00     0.051 C 
BRANCH   9  12
ATOM     10  C1  MOL A   1       3.419 -10.199 -12.406  1.00  0.00     0.006 C 
ATOM     11  N2  MOL A   1       3.235 -11.622 -12.164  1.00  0.00    -0.359 N 
ATOM     12  C3  MOL A   1       3.989 -12.612 -12.873  1.00  0.00     0.222 C 
ATOM     13  O4  MOL A   1       4.837 -12.261 -13.738  1.00  0.00    -0.275 OA
ENDBRANCH   9  12
ENDBRANCH   8   9
BRANCH   8  14
ATOM     14  N7  MOL A   1       5.218 -15.841 -11.632  1.00  0.00    -0.346 N 
ATOM     15  C8  MOL A   1       6.509 -16.193 -11.133  1.00  0.00     0.258 C 
ATOM     16  O9  MOL A   1       7.173 -15.369 -10.450  1.00  0.00    -0.271 OA
BRANCH  15  17
ATOM     17 C10  MOL A   1       7.082 -17.552 -11.403  1.00  0.00     0.167 C 
BRANCH  17  18
ATOM     18 O11  MOL A   1       7.580 -18.132 -10.200  1.00  0.00    -0.480 OA
BRANCH  18  19
ATOM     19 C12  MOL A   1       7.976 -19.471 -10.131  1.00  0.00     0.166 A 
ATOM     20 C13  MOL A   1       7.110 -20.463  -9.616  1.00  0.00     0.012 A 
ATOM     21 C21  MOL A   1       7.519 -21.807  -9.639  1.00  0.00    -0.054 A 
ATOM     22 C22  MOL A   1       8.781 -22.156 -10.118  1.00  0.00    -0.058 A 
ATOM     23 C23  MOL A   1       9.653 -21.169 -10.579  1.00  0.00    -0.016 A 
ATOM     24 C24  MOL A   1       9.259 -19.818 -10.585  1.00  0.00     0.161 A 
BRANCH  20  25
ATOM     25 C14  MOL A   1       5.756 -20.117  -9.039  1.00  0.00     0.028 C 
BRANCH  25  26
ATOM     26 N15  MOL A   1       5.125 -21.316  -8.449  1.00  0.00    -0.287 NA
ATOM     27 C16  MOL A   1       3.779 -21.547  -9.002  1.00  0.00     0.064 C 
ATOM     28 C17  MOL A   1       3.107 -21.275  -7.670  1.00  0.00     0.272 C 
ATOM     29 F18  MOL A   1       2.495 -22.388  -7.120  1.00  0.00    -0.204 F 
ATOM     30 F19  MOL A   1       2.313 -20.140  -7.668  1.00  0.00    -0.204 F 
ATOM     31 C20  MOL A   1       4.507 -21.033  -7.143  1.00  0.00     0.064 C 
ENDBRANCH  25  26
ENDBRANCH  20  25
BRANCH  24  32
ATOM     32 O25  MOL A   1      10.105 -18.797 -11.039  1.00  0.00    -0.493 OA
ATOM     33 C26  MOL A   1      11.398 -18.526 -10.509  1.00  0.00     0.078 C 
ENDBRANCH  24  32
ENDBRANCH  18  19
ENDBRANCH  17  18
ENDBRANCH  15  17
ENDBRANCH   8  14
ENDBRANCH   1   8
TORSDOF 10
ENDMDL
MODEL 13
REMARK VINA RESULT:    -8.559      3.708      8.384
REMARK INTER + INTRA:         -14.611
REMARK INTER:                 -13.612
REMARK INTRA:                  -0.999
REMARK UNBOUND:                -1.048
REMARK  10 active torsions:
REMARK  status: ('A' for Active; 'I' for Inactive)
REMARK   1   A    between atoms:  C27_1   and   C6_8  
REMARK   2   A    between atoms:  C6_8    and   C5_9  
REMARK   3   A    between atoms:  C5_9    and   C3_12 
REMARK   4   A    between atoms:  C6_8    and   N7_14 
REMARK   5   A    between atoms:  C8_15   and  C10_17 
REMARK   6   A    between atoms: C10_17   and  O11_18 
REMARK   7   A    between atoms: O11_18   and  C12_19 
REMARK   8   A    between atoms: C13_20   and  C14_25 
REMARK   9   A    between atoms: C14_25   and  N15_26 
REMARK   10  A    between atoms: C24_24   and  O25_32 
ROOT
ATOM      1 C27  MOL A   1       3.637 -14.512 -10.198  1.00  0.00    -0.024 A 
ATOM      2 C28  MOL A   1       2.265 -14.207 -10.255  1.00  0.00    -0.057 A 
ATOM      3 C29  MOL A   1       1.453 -14.387  -9.129  1.00  0.00    -0.061 A 
ATOM      4 C30  MOL A   1       2.002 -14.873  -7.939  1.00  0.00    -0.048 A 
ATOM      5 C31  MOL A   1       3.366 -15.177  -7.869  1.00  0.00     0.018 A 
ATOM      6 Br32 MOL A   1       4.120 -15.821  -6.233  1.00  0.00    -0.051 Br
ATOM      7 C33  MOL A   1       4.180 -15.003  -8.993  1.00  0.00    -0.043 A 
ENDROOT
BRANCH   1   8
ATOM      8  C6  MOL A   1       4.493 -14.384 -11.439  1.00  0.00     0.063 C 
BRANCH   8   9
ATOM      9  C5  MOL A   1       3.635 -13.908 -12.625  1.00  0.00     0.051 C 
BRANCH   9  12
ATOM     10  C1  MOL A   1       3.307 -10.034 -12.392  1.00  0.00     0.006 C 
ATOM     11  N2  MOL A   1       3.123 -11.458 -12.154  1.00  0.00    -0.359 N 
ATOM     12  C3  MOL A   1       3.839 -12.447 -12.902  1.00  0.00     0.222 C 
ATOM     13  O4  MOL A   1       4.652 -12.094 -13.799  1.00  0.00    -0.275 OA
ENDBRANCH   9  12
ENDBRANCH   8   9
BRANCH   8  14
ATOM     14  N7  MOL A   1       5.136 -15.666 -11.749  1.00  0.00    -0.346 N 
ATOM     15  C8  MOL A   1       6.435 -16.012 -11.263  1.00  0.00     0.258 C 
ATOM     16  O9  MOL A   1       7.082 -15.202 -10.548  1.00  0.00    -0.271 OA
BRANCH  15  17
ATOM     17 C10  MOL A   1       7.035 -17.347 -11.588  1.00  0.00     0.167 C 
BRANCH  17  18
ATOM     18 O11  MOL A   1       6.994 -18.202 -10.448  1.00  0.00    -0.480 OA
BRANCH  18  19
ATOM     19 C12  MOL A   1       7.975 -19.170 -10.212  1.00  0.00     0.166 A 
ATOM     20 C13  MOL A   1       7.723 -20.540 -10.452  1.00  0.00     0.012 A 
ATOM     21 C21  MOL A   1       8.762 -21.469 -10.277  1.00  0.00    -0.054 A 
ATOM     22 C22  MOL A   1      10.014 -21.053  -9.825  1.00  0.00    -0.058 A 
ATOM     23 C23  MOL A   1      10.246 -19.708  -9.539  1.00  0.00    -0.016 A 
ATOM     24 C24  MOL A   1       9.226 -18.756  -9.727  1.00  0.00     0.161 A 
BRANCH  20  25
ATOM     25 C14  MOL A   1       6.363 -21.035 -10.893  1.00  0.00     0.028 C 
BRANCH  25  26
ATOM     26 N15  MOL A   1       5.819 -21.994  -9.909  1.00  0.00    -0.287 NA
ATOM     27 C16  MOL A   1       4.350 -21.927  -9.842  1.00  0.00     0.064 C 
ATOM     28 C17  MOL A   1       4.365 -21.400  -8.421  1.00  0.00     0.272 C 
ATOM     29 F18  MOL A   1       3.839 -22.284  -7.495  1.00  0.00    -0.204 F 
ATOM     30 F19  MOL A   1       3.883 -20.107  -8.300  1.00  0.00    -0.204 F 
ATOM     31 C20  MOL A   1       5.876 -21.471  -8.533  1.00  0.00     0.064 C 
ENDBRANCH  25  26
ENDBRANCH  20  25
BRANCH  24  32
ATOM     32 O25  MOL A   1       9.418 -17.394  -9.451  1.00  0.00    -0.493 OA
ATOM     33 C26  MOL A   1       9.529 -16.845  -8.142  1.00  0.00     0.078 C 
ENDBRANCH  24  32
ENDBRANCH  18  19
ENDBRANCH  17  18
ENDBRANCH  15  17
ENDBRANCH   8  14
ENDBRANCH   1   8
TORSDOF 10
ENDMDL
MODEL 14
REMARK VINA RESULT:    -8.405      4.452      8.881
REMARK INTER + INTRA:         -14.366
REMARK INTER:                 -13.059
REMARK INTRA:                  -1.307
REMARK UNBOUND:                -1.048
REMARK  10 active torsions:
REMARK  status: ('A' for Active; 'I' for Inactive)
REMARK   1   A    between atoms:  C27_1   and   C6_8  
REMARK   2   A    between atoms:  C6_8    and   C5_9  
REMARK   3   A    between atoms:  C5_9    and   C3_12 
REMARK   4   A    between atoms:  C6_8    and   N7_14 
REMARK   5   A    between atoms:  C8_15   and  C10_17 
REMARK   6   A    between atoms: C10_17   and  O11_18 
REMARK   7   A    between atoms: O11_18   and  C12_19 
REMARK   8   A    between atoms: C13_20   and  C14_25 
REMARK   9   A    between atoms: C14_25   and  N15_26 
REMARK   10  A    between atoms: C24_24   and  O25_32 
ROOT
ATOM      1 C27  MOL A   1       6.822 -19.512  -9.795  1.00  0.00    -0.024 A 
ATOM      2 C28  MOL A   1       6.898 -20.392 -10.890  1.00  0.00    -0.057 A 
ATOM      3 C29  MOL A   1       6.235 -21.624 -10.855  1.00  0.00    -0.061 A 
ATOM      4 C30  MOL A   1       5.491 -21.988  -9.729  1.00  0.00    -0.048 A 
ATOM      5 C31  MOL A   1       5.405 -21.121  -8.634  1.00  0.00     0.018 A 
ATOM      6 Br32 MOL A   1       4.369 -21.611  -7.103  1.00  0.00    -0.051 Br
ATOM      7 C33  MOL A   1       6.071 -19.891  -8.663  1.00  0.00    -0.043 A 
ENDROOT
BRANCH   1   8
ATOM      8  C6  MOL A   1       7.600 -18.214  -9.811  1.00  0.00     0.063 C 
BRANCH   8   9
ATOM      9  C5  MOL A   1       7.968 -17.838 -11.258  1.00  0.00     0.051 C 
BRANCH   9  12
ATOM     10  C1  MOL A   1       5.511 -14.828 -11.527  1.00  0.00     0.006 C 
ATOM     11  N2  MOL A   1       6.440 -15.817 -11.000  1.00  0.00    -0.359 N 
ATOM     12  C3  MOL A   1       7.005 -16.839 -11.829  1.00  0.00     0.222 C 
ATOM     13  O4  MOL A   1       6.697 -16.904 -13.050  1.00  0.00    -0.275 OA
ENDBRANCH   9  12
ENDBRANCH   8   9
BRANCH   8  14
ATOM     14  N7  MOL A   1       8.807 -18.335  -8.986  1.00  0.00    -0.346 N 
ATOM     15  C8  MOL A   1       9.378 -17.225  -8.290  1.00  0.00     0.258 C 
ATOM     16  O9  MOL A   1       8.853 -16.083  -8.377  1.00  0.00    -0.271 OA
BRANCH  15  17
ATOM     17 C10  MOL A   1      10.598 -17.409  -7.439  1.00  0.00     0.167 C 
BRANCH  17  18
ATOM     18 O11  MOL A   1      11.558 -18.220  -8.112  1.00  0.00    -0.480 OA
BRANCH  18  19
ATOM     19 C12  MOL A   1      12.355 -19.144  -7.432  1.00  0.00     0.166 A 
ATOM     20 C13  MOL A   1      13.648 -18.800  -6.976  1.00  0.00     0.012 A 
ATOM     21 C21  MOL A   1      14.383 -19.735  -6.228  1.00  0.00    -0.054 A 
ATOM     22 C22  MOL A   1      13.865 -21.006  -5.978  1.00  0.00    -0.058 A 
ATOM     23 C23  MOL A   1      12.610 -21.361  -6.472  1.00  0.00    -0.016 A 
ATOM     24 C24  MOL A   1      11.847 -20.434  -7.207  1.00  0.00     0.161 A 
BRANCH  20  25
ATOM     25 C14  MOL A   1      14.265 -17.451  -7.274  1.00  0.00     0.028 C 
BRANCH  25  26
ATOM     26 N15  MOL A   1      13.957 -16.493  -6.192  1.00  0.00    -0.287 NA
ATOM     27 C16  MOL A   1      13.039 -15.436  -6.649  1.00  0.00     0.064 C 
ATOM     28 C17  MOL A   1      14.089 -14.354  -6.490  1.00  0.00     0.272 C 
ATOM     29 F18  MOL A   1      13.799 -13.440  -5.492  1.00  0.00    -0.204 F 
ATOM     30 F19  MOL A   1      14.477 -13.774  -7.687  1.00  0.00    -0.204 F 
ATOM     31 C20  MOL A   1      15.008 -15.473  -6.037  1.00  0.00     0.064 C 
ENDBRANCH  25  26
ENDBRANCH  20  25
BRANCH  24  32
ATOM     32 O25  MOL A   1      10.581 -20.752  -7.721  1.00  0.00    -0.493 OA
ATOM     33 C26  MOL A   1      10.359 -21.553  -8.877  1.00  0.00     0.078 C 
ENDBRANCH  24  32
ENDBRANCH  18  19
ENDBRANCH  17  18
ENDBRANCH  15  17
ENDBRANCH   8  14
ENDBRANCH   1   8
TORSDOF 10
ENDMDL
MODEL 15
REMARK VINA RESULT:    -8.333      5.505     10.127
REMARK INTER + INTRA:         -14.253
REMARK INTER:                 -13.291
REMARK INTRA:                  -0.961
REMARK UNBOUND:                -1.048
REMARK  10 active torsions:
REMARK  status: ('A' for Active; 'I' for Inactive)
REMARK   1   A    between atoms:  C27_1   and   C6_8  
REMARK   2   A    between atoms:  C6_8    and   C5_9  
REMARK   3   A    between atoms:  C5_9    and   C3_12 
REMARK   4   A    between atoms:  C6_8    and   N7_14 
REMARK   5   A    between atoms:  C8_15   and  C10_17 
REMARK   6   A    between atoms: C10_17   and  O11_18 
REMARK   7   A    between atoms: O11_18   and  C12_19 
REMARK   8   A    between atoms: C13_20   and  C14_25 
REMARK   9   A    between atoms: C14_25   and  N15_26 
REMARK   10  A    between atoms: C24_24   and  O25_32 
ROOT
ATOM      1 C27  MOL A   1       7.217 -17.031 -10.332  1.00  0.00    -0.024 A 
ATOM      2 C28  MOL A   1       7.595 -17.826 -11.430  1.00  0.00    -0.057 A 
ATOM      3 C29  MOL A   1       7.190 -17.483 -12.724  1.00  0.00    -0.061 A 
ATOM      4 C30  MOL A   1       6.405 -16.347 -12.936  1.00  0.00    -0.048 A 
ATOM      5 C31  MOL A   1       6.024 -15.546 -11.853  1.00  0.00     0.018 A 
ATOM      6 Br32 MOL A   1       4.968 -13.978 -12.146  1.00  0.00    -0.051 Br
ATOM      7 C33  MOL A   1       6.423 -15.888 -10.557  1.00  0.00    -0.043 A 
ENDROOT
BRANCH   1   8
ATOM      8  C6  MOL A   1       7.597 -17.449  -8.928  1.00  0.00     0.063 C 
BRANCH   8   9
ATOM      9  C5  MOL A   1       6.692 -16.742  -7.904  1.00  0.00     0.051 C 
BRANCH   9  12
ATOM     10  C1  MOL A   1       4.390 -19.856  -7.480  1.00  0.00     0.006 C 
ATOM     11  N2  MOL A   1       5.502 -18.993  -7.853  1.00  0.00    -0.359 N 
ATOM     12  C3  MOL A   1       5.525 -17.603  -7.514  1.00  0.00     0.222 C 
ATOM     13  O4  MOL A   1       4.562 -17.090  -6.880  1.00  0.00    -0.275 OA
ENDBRANCH   9  12
ENDBRANCH   8   9
BRANCH   8  14
ATOM     14  N7  MOL A   1       9.008 -17.139  -8.671  1.00  0.00    -0.346 N 
ATOM     15  C8  MOL A   1       9.931 -18.111  -8.177  1.00  0.00     0.258 C 
ATOM     16  O9  MOL A   1       9.547 -19.286  -7.934  1.00  0.00    -0.271 OA
BRANCH  15  17
ATOM     17 C10  MOL A   1      11.369 -17.748  -7.956  1.00  0.00     0.167 C 
BRANCH  17  18
ATOM     18 O11  MOL A   1      12.208 -18.880  -8.170  1.00  0.00    -0.480 OA
BRANCH  18  19
ATOM     19 C12  MOL A   1      13.002 -19.418  -7.153  1.00  0.00     0.166 A 
ATOM     20 C13  MOL A   1      14.137 -18.729  -6.670  1.00  0.00     0.012 A 
ATOM     21 C21  MOL A   1      14.860 -19.269  -5.593  1.00  0.00    -0.054 A 
ATOM     22 C22  MOL A   1      14.492 -20.494  -5.037  1.00  0.00    -0.058 A 
ATOM     23 C23  MOL A   1      13.402 -21.197  -5.549  1.00  0.00    -0.016 A 
ATOM     24 C24  MOL A   1      12.650 -20.667  -6.614  1.00  0.00     0.161 A 
BRANCH  20  25
ATOM     25 C14  MOL A   1      14.597 -17.424  -7.282  1.00  0.00     0.028 C 
BRANCH  25  26
ATOM     26 N15  MOL A   1      15.601 -16.774  -6.415  1.00  0.00    -0.287 NA
ATOM     27 C16  MOL A   1      15.471 -15.307  -6.441  1.00  0.00     0.064 C 
ATOM     28 C17  MOL A   1      16.816 -15.126  -7.116  1.00  0.00     0.272 C 
ATOM     29 F18  MOL A   1      17.758 -14.499  -6.319  1.00  0.00    -0.204 F 
ATOM     30 F19  MOL A   1      16.732 -14.609  -8.398  1.00  0.00    -0.204 F 
ATOM     31 C20  MOL A   1      16.908 -16.639  -7.082  1.00  0.00     0.064 C 
ENDBRANCH  25  26
ENDBRANCH  20  25
BRANCH  24  32
ATOM     32 O25  MOL A   1      11.548 -21.342  -7.158  1.00  0.00    -0.493 OA
ATOM     33 C26  MOL A   1      11.638 -22.383  -8.124  1.00  0.00     0.078 C 
ENDBRANCH  24  32
ENDBRANCH  18  19
ENDBRANCH  17  18
ENDBRANCH  15  17
ENDBRANCH   8  14
ENDBRANCH   1   8
TORSDOF 10
ENDMDL
MODEL 16
REMARK VINA RESULT:    -8.323      1.255      1.382
REMARK INTER + INTRA:         -14.237
REMARK INTER:                 -14.244
REMARK INTRA:                   0.006
REMARK UNBOUND:                -1.048
REMARK  10 active torsions:
REMARK  status: ('A' for Active; 'I' for Inactive)
REMARK   1   A    between atoms:  C27_1   and   C6_8  
REMARK   2   A    between atoms:  C6_8    and   C5_9  
REMARK   3   A    between atoms:  C5_9    and   C3_12 
REMARK   4   A    between atoms:  C6_8    and   N7_14 
REMARK   5   A    between atoms:  C8_15   and  C10_17 
REMARK   6   A    between atoms: C10_17   and  O11_18 
REMARK   7   A    between atoms: O11_18   and  C12_19 
REMARK   8   A    between atoms: C13_20   and  C14_25 
REMARK   9   A    between atoms: C14_25   and  N15_26 
REMARK   10  A    between atoms: C24_24   and  O25_32 
ROOT
ATOM      1 C27  MOL A   1       7.088 -19.705 -10.745  1.00  0.00    -0.024 A 
ATOM      2 C28  MOL A   1       7.208 -20.936 -11.414  1.00  0.00    -0.057 A 
ATOM      3 C29  MOL A   1       6.625 -22.091 -10.880  1.00  0.00    -0.061 A 
ATOM      4 C30  MOL A   1       5.919 -22.028  -9.676  1.00  0.00    -0.048 A 
ATOM      5 C31  MOL A   1       5.789 -20.808  -9.003  1.00  0.00     0.018 A 
ATOM      6 Br32 MOL A   1       4.802 -20.719  -7.366  1.00  0.00    -0.051 Br
ATOM      7 C33  MOL A   1       6.374 -19.653  -9.530  1.00  0.00    -0.043 A 
ENDROOT
BRANCH   1   8
ATOM      8  C6  MOL A   1       7.782 -18.476 -11.291  1.00  0.00     0.063 C 
BRANCH   8   9
ATOM      9  C5  MOL A   1       9.306 -18.614 -11.125  1.00  0.00     0.051 C 
BRANCH   9  12
ATOM     10  C1  MOL A   1      10.439 -19.959  -7.650  1.00  0.00     0.006 C 
ATOM     11  N2  MOL A   1      10.042 -19.892  -9.049  1.00  0.00    -0.359 N 
ATOM     12  C3  MOL A   1       9.701 -18.651  -9.677  1.00  0.00     0.222 C 
ATOM     13  O4  MOL A   1       9.734 -17.578  -9.017  1.00  0.00    -0.275 OA
ENDBRANCH   9  12
ENDBRANCH   8   9
BRANCH   8  14
ATOM     14  N7  MOL A   1       7.295 -17.272 -10.608  1.00  0.00    -0.346 N 
ATOM     15  C8  MOL A   1       6.554 -16.252 -11.282  1.00  0.00     0.258 C 
ATOM     16  O9  MOL A   1       6.301 -16.358 -12.511  1.00  0.00    -0.271 OA
BRANCH  15  17
ATOM     17 C10  MOL A   1       6.057 -15.054 -10.530  1.00  0.00     0.167 C 
BRANCH  17  18
ATOM     18 O11  MOL A   1       4.683 -14.815 -10.824  1.00  0.00    -0.480 OA
BRANCH  18  19
ATOM     19 C12  MOL A   1       3.703 -14.796  -9.828  1.00  0.00     0.166 A 
ATOM     20 C13  MOL A   1       2.455 -14.168 -10.041  1.00  0.00     0.012 A 
ATOM     21 C21  MOL A   1       1.471 -14.242  -9.041  1.00  0.00    -0.054 A 
ATOM     22 C22  MOL A   1       1.736 -14.886  -7.833  1.00  0.00    -0.058 A 
ATOM     23 C23  MOL A   1       2.987 -15.461  -7.604  1.00  0.00    -0.016 A 
ATOM     24 C24  MOL A   1       3.981 -15.417  -8.599  1.00  0.00     0.161 A 
BRANCH  20  25
ATOM     25 C14  MOL A   1       2.149 -13.416 -11.317  1.00  0.00     0.028 C 
BRANCH  25  26
ATOM     26 N15  MOL A   1       2.003 -11.972 -11.042  1.00  0.00    -0.287 NA
ATOM     27 C16  MOL A   1       0.858 -11.396 -11.768  1.00  0.00     0.064 C 
ATOM     28 C17  MOL A   1       1.750 -10.528 -12.634  1.00  0.00     0.272 C 
ATOM     29 F18  MOL A   1       1.605  -9.172 -12.398  1.00  0.00    -0.204 F 
ATOM     30 F19  MOL A   1       1.726 -10.870 -13.977  1.00  0.00    -0.204 F 
ATOM     31 C20  MOL A   1       2.903 -11.154 -11.874  1.00  0.00     0.064 C 
ENDBRANCH  25  26
ENDBRANCH  20  25
BRANCH  24  32
ATOM     32 O25  MOL A   1       5.251 -15.982  -8.409  1.00  0.00    -0.493 OA
ATOM     33 C26  MOL A   1       5.612 -16.797  -7.299  1.00  0.00     0.078 C 
ENDBRANCH  24  32
ENDBRANCH  18  19
ENDBRANCH  17  18
ENDBRANCH  15  17
ENDBRANCH   8  14
ENDBRANCH   1   8
TORSDOF 10
ENDMDL
MODEL 17
REMARK VINA RESULT:    -8.307      2.703      4.088
REMARK INTER + INTRA:         -14.212
REMARK INTER:                 -12.604
REMARK INTRA:                  -1.608
REMARK UNBOUND:                -1.048
REMARK  10 active torsions:
REMARK  status: ('A' for Active; 'I' for Inactive)
REMARK   1   A    between atoms:  C27_1   and   C6_8  
REMARK   2   A    between atoms:  C6_8    and   C5_9  
REMARK   3   A    between atoms:  C5_9    and   C3_12 
REMARK   4   A    between atoms:  C6_8    and   N7_14 
REMARK   5   A    between atoms:  C8_15   and  C10_17 
REMARK   6   A    between atoms: C10_17   and  O11_18 
REMARK   7   A    between atoms: O11_18   and  C12_19 
REMARK   8   A    between atoms: C13_20   and  C14_25 
REMARK   9   A    between atoms: C14_25   and  N15_26 
REMARK   10  A    between atoms: C24_24   and  O25_32 
ROOT
ATOM      1 C27  MOL A   1       7.156 -19.100 -10.096  1.00  0.00    -0.024 A 
ATOM      2 C28  MOL A   1       7.090 -20.017 -11.161  1.00  0.00    -0.057 A 
ATOM      3 C29  MOL A   1       6.317 -21.178 -11.047  1.00  0.00    -0.061 A 
ATOM      4 C30  MOL A   1       5.605 -21.435  -9.873  1.00  0.00    -0.048 A 
ATOM      5 C31  MOL A   1       5.660 -20.530  -8.807  1.00  0.00     0.018 A 
ATOM      6 Br32 MOL A   1       4.668 -20.871  -7.208  1.00  0.00    -0.051 Br
ATOM      7 C33  MOL A   1       6.435 -19.370  -8.915  1.00  0.00    -0.043 A 
ENDROOT
BRANCH   1   8
ATOM      8  C6  MOL A   1       8.051 -17.884 -10.199  1.00  0.00     0.063 C 
BRANCH   8   9
ATOM      9  C5  MOL A   1       9.118 -17.919  -9.090  1.00  0.00     0.051 C 
BRANCH   9  12
ATOM     10  C1  MOL A   1      12.974 -18.416  -9.331  1.00  0.00     0.006 C 
ATOM     11  N2  MOL A   1      11.644 -18.106  -8.826  1.00  0.00    -0.359 N 
ATOM     12  C3  MOL A   1      10.477 -18.236  -9.644  1.00  0.00     0.222 C 
ATOM     13  O4  MOL A   1      10.583 -18.624 -10.840  1.00  0.00    -0.275 OA
ENDBRANCH   9  12
ENDBRANCH   8   9
BRANCH   8  14
ATOM     14  N7  MOL A   1       7.252 -16.657 -10.108  1.00  0.00    -0.346 N 
ATOM     15  C8  MOL A   1       6.595 -16.081 -11.239  1.00  0.00     0.258 C 
ATOM     16  O9  MOL A   1       6.694 -16.620 -12.374  1.00  0.00    -0.271 OA
BRANCH  15  17
ATOM     17 C10  MOL A   1       5.769 -14.839 -11.086  1.00  0.00     0.167 C 
BRANCH  17  18
ATOM     18 O11  MOL A   1       4.499 -15.004 -11.712  1.00  0.00    -0.480 OA
BRANCH  18  19
ATOM     19 C12  MOL A   1       3.502 -14.028 -11.634  1.00  0.00     0.166 A 
ATOM     20 C13  MOL A   1       2.544 -14.044 -10.594  1.00  0.00     0.012 A 
ATOM     21 C21  MOL A   1       1.609 -12.999 -10.508  1.00  0.00    -0.054 A 
ATOM     22 C22  MOL A   1       1.592 -11.984 -11.464  1.00  0.00    -0.058 A 
ATOM     23 C23  MOL A   1       2.505 -11.998 -12.518  1.00  0.00    -0.016 A 
ATOM     24 C24  MOL A   1       3.465 -13.023 -12.614  1.00  0.00     0.161 A 
BRANCH  20  25
ATOM     25 C14  MOL A   1       2.498 -15.156  -9.570  1.00  0.00     0.028 C 
BRANCH  25  26
ATOM     26 N15  MOL A   1       2.993 -14.676  -8.264  1.00  0.00    -0.287 NA
ATOM     27 C16  MOL A   1       4.329 -15.216  -7.959  1.00  0.00     0.064 C 
ATOM     28 C17  MOL A   1       3.813 -16.029  -6.788  1.00  0.00     0.272 C 
ATOM     29 F18  MOL A   1       4.289 -15.600  -5.561  1.00  0.00    -0.204 F 
ATOM     30 F19  MOL A   1       3.905 -17.399  -6.977  1.00  0.00    -0.204 F 
ATOM     31 C20  MOL A   1       2.453 -15.462  -7.141  1.00  0.00     0.064 C 
ENDBRANCH  25  26
ENDBRANCH  20  25
BRANCH  24  32
ATOM     32 O25  MOL A   1       4.400 -13.074 -13.658  1.00  0.00    -0.493 OA
ATOM     33 C26  MOL A   1       4.786 -11.955 -14.449  1.00  0.00     0.078 C 
ENDBRANCH  24  32
ENDBRANCH  18  19
ENDBRANCH  17  18
ENDBRANCH  15  17
ENDBRANCH   8  14
ENDBRANCH   1   8
TORSDOF 10
ENDMDL
MODEL 18
REMARK VINA RESULT:    -8.260      1.348      1.738
REMARK INTER + INTRA:         -14.138
REMARK INTER:                 -13.362
REMARK INTRA:                  -0.776
REMARK UNBOUND:                -1.048
REMARK  10 active torsions:
REMARK  status: ('A' for Active; 'I' for Inactive)
REMARK   1   A    between atoms:  C27_1   and   C6_8  
REMARK   2   A    between atoms:  C6_8    and   C5_9  
REMARK   3   A    between atoms:  C5_9    and   C3_12 
REMARK   4   A    between atoms:  C6_8    and   N7_14 
REMARK   5   A    between atoms:  C8_15   and  C10_17 
REMARK   6   A    between atoms: C10_17   and  O11_18 
REMARK   7   A    between atoms: O11_18   and  C12_19 
REMARK   8   A    between atoms: C13_20   and  C14_25 
REMARK   9   A    between atoms: C14_25   and  N15_26 
REMARK   10  A    between atoms: C24_24   and  O25_32 
ROOT
ATOM      1 C27  MOL A   1       5.962 -19.799  -8.903  1.00  0.00    -0.024 A 
ATOM      2 C28  MOL A   1       5.547 -19.724  -7.560  1.00  0.00    -0.057 A 
ATOM      3 C29  MOL A   1       4.524 -20.553  -7.089  1.00  0.00    -0.061 A 
ATOM      4 C30  MOL A   1       3.904 -21.462  -7.951  1.00  0.00    -0.048 A 
ATOM      5 C31  MOL A   1       4.309 -21.549  -9.288  1.00  0.00     0.018 A 
ATOM      6 Br32 MOL A   1       3.476 -22.809 -10.461  1.00  0.00    -0.051 Br
ATOM      7 C33  MOL A   1       5.329 -20.718  -9.764  1.00  0.00    -0.043 A 
ENDROOT
BRANCH   1   8
ATOM      8  C6  MOL A   1       7.019 -18.849  -9.423  1.00  0.00     0.063 C 
BRANCH   8   9
ATOM      9  C5  MOL A   1       8.151 -18.703  -8.390  1.00  0.00     0.051 C 
BRANCH   9  12
ATOM     10  C1  MOL A   1      11.335 -18.570 -10.630  1.00  0.00     0.006 C 
ATOM     11  N2  MOL A   1      10.110 -19.021  -9.987  1.00  0.00    -0.359 N 
ATOM     12  C3  MOL A   1       9.419 -18.214  -9.027  1.00  0.00     0.222 C 
ATOM     13  O4  MOL A   1       9.872 -17.079  -8.713  1.00  0.00    -0.275 OA
ENDBRANCH   9  12
ENDBRANCH   8   9
BRANCH   8  14
ATOM     14  N7  MOL A   1       6.425 -17.542  -9.724  1.00  0.00    -0.346 N 
ATOM     15  C8  MOL A   1       6.486 -16.951 -11.024  1.00  0.00     0.258 C 
ATOM     16  O9  MOL A   1       7.076 -17.546 -11.965  1.00  0.00    -0.271 OA
BRANCH  15  17
ATOM     17 C10  MOL A   1       5.839 -15.624 -11.285  1.00  0.00     0.167 C 
BRANCH  17  18
ATOM     18 O11  MOL A   1       5.477 -14.996 -10.057  1.00  0.00    -0.480 OA
BRANCH  18  19
ATOM     19 C12  MOL A   1       4.143 -14.778  -9.701  1.00  0.00     0.166 A 
ATOM     20 C13  MOL A   1       3.240 -14.158 -10.594  1.00  0.00     0.012 A 
ATOM     21 C21  MOL A   1       1.890 -14.031 -10.225  1.00  0.00    -0.054 A 
ATOM     22 C22  MOL A   1       1.454 -14.466  -8.974  1.00  0.00    -0.058 A 
ATOM     23 C23  MOL A   1       2.358 -15.032  -8.074  1.00  0.00    -0.016 A 
ATOM     24 C24  MOL A   1       3.711 -15.188  -8.429  1.00  0.00     0.161 A 
BRANCH  20  25
ATOM     25 C14  MOL A   1       3.687 -13.625 -11.938  1.00  0.00     0.028 C 
BRANCH  25  26
ATOM     26 N15  MOL A   1       4.172 -12.236 -11.806  1.00  0.00    -0.287 NA
ATOM     27 C16  MOL A   1       3.168 -11.370 -11.165  1.00  0.00     0.064 C 
ATOM     28 C17  MOL A   1       2.970 -10.546 -12.422  1.00  0.00     0.272 C 
ATOM     29 F18  MOL A   1       3.403  -9.237 -12.301  1.00  0.00    -0.204 F 
ATOM     30 F19  MOL A   1       1.707 -10.670 -12.977  1.00  0.00    -0.204 F 
ATOM     31 C20  MOL A   1       3.998 -11.467 -13.050  1.00  0.00     0.064 C 
ENDBRANCH  25  26
ENDBRANCH  20  25
BRANCH  24  32
ATOM     32 O25  MOL A   1       4.651 -15.751  -7.554  1.00  0.00    -0.493 OA
ATOM     33 C26  MOL A   1       4.465 -15.882  -6.149  1.00  0.00     0.078 C 
ENDBRANCH  24  32
ENDBRANCH  18  19
ENDBRANCH  17  18
ENDBRANCH  15  17
ENDBRANCH   8  14
ENDBRANCH   1   8
TORSDOF 10
ENDMDL
MODEL 19
REMARK VINA RESULT:    -8.247      4.324      9.397
REMARK INTER + INTRA:         -14.117
REMARK INTER:                 -13.054
REMARK INTRA:                  -1.063
REMARK UNBOUND:                -1.048
REMARK  10 active torsions:
REMARK  status: ('A' for Active; 'I' for Inactive)
REMARK   1   A    between atoms:  C27_1   and   C6_8  
REMARK   2   A    between atoms:  C6_8    and   C5_9  
REMARK   3   A    between atoms:  C5_9    and   C3_12 
REMARK   4   A    between atoms:  C6_8    and   N7_14 
REMARK   5   A    between atoms:  C8_15   and  C10_17 
REMARK   6   A    between atoms: C10_17   and  O11_18 
REMARK   7   A    between atoms: O11_18   and  C12_19 
REMARK   8   A    between atoms: C13_20   and  C14_25 
REMARK   9   A    between atoms: C14_25   and  N15_26 
REMARK   10  A    between atoms: C24_24   and  O25_32 
ROOT
ATOM      1 C27  MOL A   1       6.747 -17.921  -8.586  1.00  0.00    -0.024 A 
ATOM      2 C28  MOL A   1       5.986 -16.985  -7.862  1.00  0.00    -0.057 A 
ATOM      3 C29  MOL A   1       4.839 -17.389  -7.170  1.00  0.00    -0.061 A 
ATOM      4 C30  MOL A   1       4.440 -18.728  -7.195  1.00  0.00    -0.048 A 
ATOM      5 C31  MOL A   1       5.190 -19.670  -7.908  1.00  0.00     0.018 A 
ATOM      6 Br32 MOL A   1       4.656 -21.507  -7.923  1.00  0.00    -0.051 Br
ATOM      7 C33  MOL A   1       6.334 -19.269  -8.605  1.00  0.00    -0.043 A 
ENDROOT
BRANCH   1   8
ATOM      8  C6  MOL A   1       7.944 -17.463  -9.390  1.00  0.00     0.063 C 
BRANCH   8   9
ATOM      9  C5  MOL A   1       7.774 -17.868 -10.866  1.00  0.00     0.051 C 
BRANCH   9  12
ATOM     10  C1  MOL A   1       5.702 -14.673 -11.685  1.00  0.00     0.006 C 
ATOM     11  N2  MOL A   1       6.472 -15.682 -10.971  1.00  0.00    -0.359 N 
ATOM     12  C3  MOL A   1       6.974 -16.851 -11.627  1.00  0.00     0.222 C 
ATOM     13  O4  MOL A   1       6.750 -17.033 -12.855  1.00  0.00    -0.275 OA
ENDBRANCH   9  12
ENDBRANCH   8   9
BRANCH   8  14
ATOM     14  N7  MOL A   1       9.177 -18.034  -8.837  1.00  0.00    -0.346 N 
ATOM     15  C8  MOL A   1      10.002 -17.329  -7.908  1.00  0.00     0.258 C 
ATOM     16  O9  MOL A   1       9.691 -16.165  -7.538  1.00  0.00    -0.271 OA
BRANCH  15  17
ATOM     17 C10  MOL A   1      11.238 -17.970  -7.352  1.00  0.00     0.167 C 
BRANCH  17  18
ATOM     18 O11  MOL A   1      12.146 -18.294  -8.402  1.00  0.00    -0.480 OA
BRANCH  18  19
ATOM     19 C12  MOL A   1      13.395 -18.869  -8.151  1.00  0.00     0.166 A 
ATOM     20 C13  MOL A   1      14.560 -18.074  -8.051  1.00  0.00     0.012 A 
ATOM     21 C21  MOL A   1      15.780 -18.685  -7.719  1.00  0.00    -0.054 A 
ATOM     22 C22  MOL A   1      15.855 -20.066  -7.537  1.00  0.00    -0.058 A 
ATOM     23 C23  MOL A   1      14.714 -20.855  -7.685  1.00  0.00    -0.016 A 
ATOM     24 C24  MOL A   1      13.476 -20.263  -7.998  1.00  0.00     0.161 A 
BRANCH  20  25
ATOM     25 C14  MOL A   1      14.528 -16.581  -8.294  1.00  0.00     0.028 C 
BRANCH  25  26
ATOM     26 N15  MOL A   1      14.958 -15.852  -7.084  1.00  0.00    -0.287 NA
ATOM     27 C16  MOL A   1      14.230 -16.311  -5.888  1.00  0.00     0.064 C 
ATOM     28 C17  MOL A   1      13.530 -14.977  -5.713  1.00  0.00     0.272 C 
ATOM     29 F18  MOL A   1      13.911 -14.296  -4.570  1.00  0.00    -0.204 F 
ATOM     30 F19  MOL A   1      12.159 -15.038  -5.899  1.00  0.00    -0.204 F 
ATOM     31 C20  MOL A   1      14.288 -14.547  -6.954  1.00  0.00     0.064 C 
ENDBRANCH  25  26
ENDBRANCH  20  25
BRANCH  24  32
ATOM     32 O25  MOL A   1      12.307 -21.021  -8.157  1.00  0.00    -0.493 OA
ATOM     33 C26  MOL A   1      12.190 -22.401  -7.828  1.00  0.00     0.078 C 
ENDBRANCH  24  32
ENDBRANCH  18  19
ENDBRANCH  17  18
ENDBRANCH  15  17
ENDBRANCH   8  14
ENDBRANCH   1   8
TORSDOF 10
ENDMDL
MODEL 20
REMARK VINA RESULT:    -8.236      1.650      1.922
REMARK INTER + INTRA:         -14.098
REMARK INTER:                 -13.467
REMARK INTRA:                  -0.631
REMARK UNBOUND:                -1.048
REMARK  10 active torsions:
REMARK  status: ('A' for Active; 'I' for Inactive)
REMARK   1   A    between atoms:  C27_1   and   C6_8  
REMARK   2   A    between atoms:  C6_8    and   C5_9  
REMARK   3   A    between atoms:  C5_9    and   C3_12 
REMARK   4   A    between atoms:  C6_8    and   N7_14 
REMARK   5   A    between atoms:  C8_15   and  C10_17 
REMARK   6   A    between atoms: C10_17   and  O11_18 
REMARK   7   A    between atoms: O11_18   and  C12_19 
REMARK   8   A    between atoms: C13_20   and  C14_25 
REMARK   9   A    between atoms: C14_25   and  N15_26 
REMARK   10  A    between atoms: C24_24   and  O25_32 
ROOT
ATOM      1 C27  MOL A   1       7.654 -19.938 -10.301  1.00  0.00    -0.024 A 
ATOM      2 C28  MOL A   1       6.322 -20.393 -10.280  1.00  0.00    -0.057 A 
ATOM      3 C29  MOL A   1       6.041 -21.761 -10.366  1.00  0.00    -0.061 A 
ATOM      4 C30  MOL A   1       7.083 -22.686 -10.474  1.00  0.00    -0.048 A 
ATOM      5 C31  MOL A   1       8.411 -22.247 -10.492  1.00  0.00     0.018 A 
ATOM      6 Br32 MOL A   1       9.838 -23.516 -10.617  1.00  0.00    -0.051 Br
ATOM      7 C33  MOL A   1       8.697 -20.880 -10.411  1.00  0.00    -0.043 A 
ENDROOT
BRANCH   1   8
ATOM      8  C6  MOL A   1       7.947 -18.453 -10.280  1.00  0.00     0.063 C 
BRANCH   8   9
ATOM      9  C5  MOL A   1       8.288 -18.003  -8.849  1.00  0.00     0.051 C 
BRANCH   9  12
ATOM     10  C1  MOL A   1      12.118 -18.065  -9.555  1.00  0.00     0.006 C 
ATOM     11  N2  MOL A   1      10.676 -18.173  -9.718  1.00  0.00    -0.359 N 
ATOM     12  C3  MOL A   1       9.771 -17.891  -8.645  1.00  0.00     0.222 C 
ATOM     13  O4  MOL A   1      10.217 -17.543  -7.518  1.00  0.00    -0.275 OA
ENDBRANCH   9  12
ENDBRANCH   8   9
BRANCH   8  14
ATOM     14  N7  MOL A   1       6.799 -17.702 -10.799  1.00  0.00    -0.346 N 
ATOM     15  C8  MOL A   1       6.706 -16.279 -10.706  1.00  0.00     0.258 C 
ATOM     16  O9  MOL A   1       7.625 -15.617 -10.154  1.00  0.00    -0.271 OA
BRANCH  15  17
ATOM     17 C10  MOL A   1       5.522 -15.557 -11.276  1.00  0.00     0.167 C 
BRANCH  17  18
ATOM     18 O11  MOL A   1       5.114 -14.503 -10.407  1.00  0.00    -0.480 OA
BRANCH  18  19
ATOM     19 C12  MOL A   1       3.862 -14.494  -9.788  1.00  0.00     0.166 A 
ATOM     20 C13  MOL A   1       2.746 -13.883 -10.404  1.00  0.00     0.012 A 
ATOM     21 C21  MOL A   1       1.488 -13.967  -9.784  1.00  0.00    -0.054 A 
ATOM     22 C22  MOL A   1       1.349 -14.604  -8.551  1.00  0.00    -0.058 A 
ATOM     23 C23  MOL A   1       2.461 -15.163  -7.920  1.00  0.00    -0.016 A 
ATOM     24 C24  MOL A   1       3.727 -15.109  -8.532  1.00  0.00     0.161 A 
BRANCH  20  25
ATOM     25 C14  MOL A   1       2.869 -13.137 -11.715  1.00  0.00     0.028 C 
BRANCH  25  26
ATOM     26 N15  MOL A   1       1.922 -12.004 -11.754  1.00  0.00    -0.287 NA
ATOM     27 C16  MOL A   1       2.170 -11.131 -12.915  1.00  0.00     0.064 C 
ATOM     28 C17  MOL A   1       2.594  -9.967 -12.041  1.00  0.00     0.272 C 
ATOM     29 F18  MOL A   1       1.723  -8.892 -12.087  1.00  0.00    -0.204 F 
ATOM     30 F19  MOL A   1       3.926  -9.617 -12.186  1.00  0.00    -0.204 F 
ATOM     31 C20  MOL A   1       2.340 -10.900 -10.873  1.00  0.00     0.064 C 
ENDBRANCH  25  26
ENDBRANCH  20  25
BRANCH  24  32
ATOM     32 O25  MOL A   1       4.869 -15.657  -7.932  1.00  0.00    -0.493 OA
ATOM     33 C26  MOL A   1       4.870 -16.827  -7.120  1.00  0.00     0.078 C 
ENDBRANCH  24  32
ENDBRANCH  18  19
ENDBRANCH  17  18
ENDBRANCH  15  17
ENDBRANCH   8  14
ENDBRANCH   1   8
TORSDOF 10
ENDMDL
MODEL 21
REMARK VINA RESULT:    -8.223      2.158      2.829
REMARK INTER + INTRA:         -14.079
REMARK INTER:                 -14.225
REMARK INTRA:                   0.145
REMARK UNBOUND:                -1.048
REMARK  10 active torsions:
REMARK  status: ('A' for Active; 'I' for Inactive)
REMARK   1   A    between atoms:  C27_1   and   C6_8  
REMARK   2   A    between atoms:  C6_8    and   C5_9  
REMARK   3   A    between atoms:  C5_9    and   C3_12 
REMARK   4   A    between atoms:  C6_8    and   N7_14 
REMARK   5   A    between atoms:  C8_15   and  C10_17 
REMARK   6   A    between atoms: C10_17   and  O11_18 
REMARK   7   A    between atoms: O11_18   and  C12_19 
REMARK   8   A    between atoms: C13_20   and  C14_25 
REMARK   9   A    between atoms: C14_25   and  N15_26 
REMARK   10  A    between atoms: C24_24   and  O25_32 
ROOT
ATOM      1 C27  MOL A   1       5.267 -20.689  -8.539  1.00  0.00    -0.024 A 
ATOM      2 C28  MOL A   1       5.148 -20.887  -7.151  1.00  0.00    -0.057 A 
ATOM      3 C29  MOL A   1       4.076 -21.620  -6.631  1.00  0.00    -0.061 A 
ATOM      4 C30  MOL A   1       3.115 -22.162  -7.489  1.00  0.00    -0.048 A 
ATOM      5 C31  MOL A   1       3.224 -21.975  -8.871  1.00  0.00     0.018 A 
ATOM      6 Br32 MOL A   1       1.919 -22.736 -10.046  1.00  0.00    -0.051 Br
ATOM      7 C33  MOL A   1       4.291 -21.238  -9.395  1.00  0.00    -0.043 A 
ENDROOT
BRANCH   1   8
ATOM      8  C6  MOL A   1       6.389 -19.834  -9.088  1.00  0.00     0.063 C 
BRANCH   8   9
ATOM      9  C5  MOL A   1       7.746 -20.356  -8.583  1.00  0.00     0.051 C 
BRANCH   9  12
ATOM     10  C1  MOL A   1       9.542 -22.552 -11.252  1.00  0.00     0.006 C 
ATOM     11  N2  MOL A   1       9.078 -21.407 -10.483  1.00  0.00    -0.359 N 
ATOM     12  C3  MOL A   1       8.199 -21.556  -9.363  1.00  0.00     0.222 C 
ATOM     13  O4  MOL A   1       7.799 -22.703  -9.021  1.00  0.00    -0.275 OA
ENDBRANCH   9  12
ENDBRANCH   8   9
BRANCH   8  14
ATOM     14  N7  MOL A   1       6.197 -18.433  -8.698  1.00  0.00    -0.346 N 
ATOM     15  C8  MOL A   1       6.520 -17.342  -9.564  1.00  0.00     0.258 C 
ATOM     16  O9  MOL A   1       6.999 -17.560 -10.708  1.00  0.00    -0.271 OA
BRANCH  15  17
ATOM     17 C10  MOL A   1       6.280 -15.929  -9.125  1.00  0.00     0.167 C 
BRANCH  17  18
ATOM     18 O11  MOL A   1       5.358 -15.285 -10.001  1.00  0.00    -0.480 OA
BRANCH  18  19
ATOM     19 C12  MOL A   1       4.051 -14.980  -9.608  1.00  0.00     0.166 A 
ATOM     20 C13  MOL A   1       3.122 -14.432 -10.522  1.00  0.00     0.012 A 
ATOM     21 C21  MOL A   1       1.798 -14.215 -10.105  1.00  0.00    -0.054 A 
ATOM     22 C22  MOL A   1       1.414 -14.492  -8.793  1.00  0.00    -0.058 A 
ATOM     23 C23  MOL A   1       2.345 -14.986  -7.880  1.00  0.00    -0.016 A 
ATOM     24 C24  MOL A   1       3.673 -15.230  -8.279  1.00  0.00     0.161 A 
BRANCH  20  25
ATOM     25 C14  MOL A   1       3.516 -14.069 -11.937  1.00  0.00     0.028 C 
BRANCH  25  26
ATOM     26 N15  MOL A   1       4.133 -12.727 -11.973  1.00  0.00    -0.287 NA
ATOM     27 C16  MOL A   1       3.259 -11.712 -11.361  1.00  0.00     0.064 C 
ATOM     28 C17  MOL A   1       3.049 -10.993 -12.679  1.00  0.00     0.272 C 
ATOM     29 F18  MOL A   1       3.606  -9.726 -12.715  1.00  0.00    -0.204 F 
ATOM     30 F19  MOL A   1       1.744 -11.045 -13.141  1.00  0.00    -0.204 F 
ATOM     31 C20  MOL A   1       3.943 -12.063 -13.274  1.00  0.00     0.064 C 
ENDBRANCH  25  26
ENDBRANCH  20  25
BRANCH  24  32
ATOM     32 O25  MOL A   1       4.639 -15.725  -7.391  1.00  0.00    -0.493 OA
ATOM     33 C26  MOL A   1       4.378 -16.100  -6.043  1.00  0.00     0.078 C 
ENDBRANCH  24  32
ENDBRANCH  18  19
ENDBRANCH  17  18
ENDBRANCH  15  17
ENDBRANCH   8  14
ENDBRANCH   1   8
TORSDOF 10
ENDMDL
MODEL 22
REMARK VINA RESULT:    -8.222      4.747      9.468
REMARK INTER + INTRA:         -14.078
REMARK INTER:                 -12.830
REMARK INTRA:                  -1.248
REMARK UNBOUND:                -1.048
REMARK  10 active torsions:
REMARK  status: ('A' for Active; 'I' for Inactive)
REMARK   1   A    between atoms:  C27_1   and   C6_8  
REMARK   2   A    between atoms:  C6_8    and   C5_9  
REMARK   3   A    between atoms:  C5_9    and   C3_12 
REMARK   4   A    between atoms:  C6_8    and   N7_14 
REMARK   5   A    between atoms:  C8_15   and  C10_17 
REMARK   6   A    between atoms: C10_17   and  O11_18 
REMARK   7   A    between atoms: O11_18   and  C12_19 
REMARK   8   A    between atoms: C13_20   and  C14_25 
REMARK   9   A    between atoms: C14_25   and  N15_26 
REMARK   10  A    between atoms: C24_24   and  O25_32 
ROOT
ATOM      1 C27  MOL A   1       6.769 -19.386  -9.771  1.00  0.00    -0.024 A 
ATOM      2 C28  MOL A   1       6.833 -20.255 -10.875  1.00  0.00    -0.057 A 
ATOM      3 C29  MOL A   1       6.197 -21.501 -10.833  1.00  0.00    -0.061 A 
ATOM      4 C30  MOL A   1       5.493 -21.890  -9.690  1.00  0.00    -0.048 A 
ATOM      5 C31  MOL A   1       5.419 -21.033  -8.586  1.00  0.00     0.018 A 
ATOM      6 Br32 MOL A   1       4.436 -21.558  -7.031  1.00  0.00    -0.051 Br
ATOM      7 C33  MOL A   1       6.058 -19.790  -8.623  1.00  0.00    -0.043 A 
ENDROOT
BRANCH   1   8
ATOM      8  C6  MOL A   1       7.520 -18.072  -9.798  1.00  0.00     0.063 C 
BRANCH   8   9
ATOM      9  C5  MOL A   1       7.874 -17.696 -11.248  1.00  0.00     0.051 C 
BRANCH   9  12
ATOM     10  C1  MOL A   1       5.431 -14.673 -11.507  1.00  0.00     0.006 C 
ATOM     11  N2  MOL A   1       6.367 -15.659 -10.987  1.00  0.00    -0.359 N 
ATOM     12  C3  MOL A   1       6.902 -16.700 -11.811  1.00  0.00     0.222 C 
ATOM     13  O4  MOL A   1       6.561 -16.785 -13.023  1.00  0.00    -0.275 OA
ENDBRANCH   9  12
ENDBRANCH   8   9
BRANCH   8  14
ATOM     14  N7  MOL A   1       8.732 -18.163  -8.977  1.00  0.00    -0.346 N 
ATOM     15  C8  MOL A   1       9.328 -17.021  -8.357  1.00  0.00     0.258 C 
ATOM     16  O9  MOL A   1       8.822 -15.878  -8.510  1.00  0.00    -0.271 OA
BRANCH  15  17
ATOM     17 C10  MOL A   1      10.553 -17.174  -7.506  1.00  0.00     0.167 C 
BRANCH  17  18
ATOM     18 O11  MOL A   1      11.662 -17.593  -8.298  1.00  0.00    -0.480 OA
BRANCH  18  19
ATOM     19 C12  MOL A   1      12.553 -18.577  -7.863  1.00  0.00     0.166 A 
ATOM     20 C13  MOL A   1      13.697 -18.244  -7.101  1.00  0.00     0.012 A 
ATOM     21 C21  MOL A   1      14.523 -19.272  -6.619  1.00  0.00    -0.054 A 
ATOM     22 C22  MOL A   1      14.248 -20.605  -6.927  1.00  0.00    -0.058 A 
ATOM     23 C23  MOL A   1      13.147 -20.928  -7.721  1.00  0.00    -0.016 A 
ATOM     24 C24  MOL A   1      12.294 -19.916  -8.199  1.00  0.00     0.161 A 
BRANCH  20  25
ATOM     25 C14  MOL A   1      14.056 -16.807  -6.792  1.00  0.00     0.028 C 
BRANCH  25  26
ATOM     26 N15  MOL A   1      15.448 -16.718  -6.305  1.00  0.00    -0.287 NA
ATOM     27 C16  MOL A   1      15.776 -15.356  -5.851  1.00  0.00     0.064 C 
ATOM     28 C17  MOL A   1      16.787 -15.150  -6.962  1.00  0.00     0.272 C 
ATOM     29 F18  MOL A   1      18.092 -15.044  -6.513  1.00  0.00    -0.204 F 
ATOM     30 F19  MOL A   1      16.425 -14.169  -7.871  1.00  0.00    -0.204 F 
ATOM     31 C20  MOL A   1      16.412 -16.551  -7.406  1.00  0.00     0.064 C 
ENDBRANCH  25  26
ENDBRANCH  20  25
BRANCH  24  32
ATOM     32 O25  MOL A   1      11.179 -20.199  -9.001  1.00  0.00    -0.493 OA
ATOM     33 C26  MOL A   1      10.333 -21.332  -8.834  1.00  0.00     0.078 C 
ENDBRANCH  24  32
ENDBRANCH  18  19
ENDBRANCH  17  18
ENDBRANCH  15  17
ENDBRANCH   8  14
ENDBRANCH   1   8
TORSDOF 10
ENDMDL
MODEL 23
REMARK VINA RESULT:    -8.205      4.428      9.008
REMARK INTER + INTRA:         -14.050
REMARK INTER:                 -12.559
REMARK INTRA:                  -1.491
REMARK UNBOUND:                -1.048
REMARK  10 active torsions:
REMARK  status: ('A' for Active; 'I' for Inactive)
REMARK   1   A    between atoms:  C27_1   and   C6_8  
REMARK   2   A    between atoms:  C6_8    and   C5_9  
REMARK   3   A    between atoms:  C5_9    and   C3_12 
REMARK   4   A    between atoms:  C6_8    and   N7_14 
REMARK   5   A    between atoms:  C8_15   and  C10_17 
REMARK   6   A    between atoms: C10_17   and  O11_18 
REMARK   7   A    between atoms: O11_18   and  C12_19 
REMARK   8   A    between atoms: C13_20   and  C14_25 
REMARK   9   A    between atoms: C14_25   and  N15_26 
REMARK   10  A    between atoms: C24_24   and  O25_32 
ROOT
ATOM      1 C27  MOL A   1       6.710 -17.662  -8.993  1.00  0.00    -0.024 A 
ATOM      2 C28  MOL A   1       6.373 -19.014  -8.799  1.00  0.00    -0.057 A 
ATOM      3 C29  MOL A   1       5.385 -19.372  -7.874  1.00  0.00    -0.061 A 
ATOM      4 C30  MOL A   1       4.726 -18.386  -7.136  1.00  0.00    -0.048 A 
ATOM      5 C31  MOL A   1       5.049 -17.037  -7.321  1.00  0.00     0.018 A 
ATOM      6 Br32 MOL A   1       4.130 -15.686  -6.326  1.00  0.00    -0.051 Br
ATOM      7 C33  MOL A   1       6.039 -16.676  -8.241  1.00  0.00    -0.043 A 
ENDROOT
BRANCH   1   8
ATOM      8  C6  MOL A   1       7.829 -17.289  -9.941  1.00  0.00     0.063 C 
BRANCH   8   9
ATOM      9  C5  MOL A   1       7.479 -17.736 -11.372  1.00  0.00     0.051 C 
BRANCH   9  12
ATOM     10  C1  MOL A   1       5.353 -14.551 -12.086  1.00  0.00     0.006 C 
ATOM     11  N2  MOL A   1       6.088 -15.602 -11.398  1.00  0.00    -0.359 N 
ATOM     12  C3  MOL A   1       6.718 -16.672 -12.110  1.00  0.00     0.222 C 
ATOM     13  O4  MOL A   1       6.640 -16.727 -13.367  1.00  0.00    -0.275 OA
ENDBRANCH   9  12
ENDBRANCH   8   9
BRANCH   8  14
ATOM     14  N7  MOL A   1       9.089 -17.898  -9.504  1.00  0.00    -0.346 N 
ATOM     15  C8  MOL A   1       9.901 -17.331  -8.473  1.00  0.00     0.258 C 
ATOM     16  O9  MOL A   1       9.552 -16.261  -7.906  1.00  0.00    -0.271 OA
BRANCH  15  17
ATOM     17 C10  MOL A   1      11.168 -18.009  -8.046  1.00  0.00     0.167 C 
BRANCH  17  18
ATOM     18 O11  MOL A   1      10.877 -19.165  -7.265  1.00  0.00    -0.480 OA
BRANCH  18  19
ATOM     19 C12  MOL A   1      11.512 -20.390  -7.487  1.00  0.00     0.166 A 
ATOM     20 C13  MOL A   1      10.868 -21.428  -8.198  1.00  0.00     0.012 A 
ATOM     21 C21  MOL A   1      11.573 -22.614  -8.467  1.00  0.00    -0.054 A 
ATOM     22 C22  MOL A   1      12.876 -22.785  -7.998  1.00  0.00    -0.058 A 
ATOM     23 C23  MOL A   1      13.491 -21.778  -7.254  1.00  0.00    -0.016 A 
ATOM     24 C24  MOL A   1      12.812 -20.574  -6.989  1.00  0.00     0.161 A 
BRANCH  20  25
ATOM     25 C14  MOL A   1       9.439 -21.300  -8.677  1.00  0.00     0.028 C 
BRANCH  25  26
ATOM     26 N15  MOL A   1       9.276 -21.948  -9.994  1.00  0.00    -0.287 NA
ATOM     27 C16  MOL A   1       8.431 -21.142 -10.893  1.00  0.00     0.064 C 
ATOM     28 C17  MOL A   1       7.332 -22.186 -10.914  1.00  0.00     0.272 C 
ATOM     29 F18  MOL A   1       7.157 -22.784 -12.150  1.00  0.00    -0.204 F 
ATOM     30 F19  MOL A   1       6.152 -21.765 -10.323  1.00  0.00    -0.204 F 
ATOM     31 C20  MOL A   1       8.224 -22.979  -9.980  1.00  0.00     0.064 C 
ENDBRANCH  25  26
ENDBRANCH  20  25
BRANCH  24  32
ATOM     32 O25  MOL A   1      13.394 -19.539  -6.244  1.00  0.00    -0.493 OA
ATOM     33 C26  MOL A   1      14.773 -19.188  -6.292  1.00  0.00     0.078 C 
ENDBRANCH  24  32
ENDBRANCH  18  19
ENDBRANCH  17  18
ENDBRANCH  15  17
ENDBRANCH   8  14
ENDBRANCH   1   8
TORSDOF 10
ENDMDL
MODEL 24
REMARK VINA RESULT:    -8.162      5.662     10.240
REMARK INTER + INTRA:         -13.982
REMARK INTER:                 -12.567
REMARK INTRA:                  -1.415
REMARK UNBOUND:                -1.048
REMARK  10 active torsions:
REMARK  status: ('A' for Active; 'I' for Inactive)
REMARK   1   A    between atoms:  C27_1   and   C6_8  
REMARK   2   A    between atoms:  C6_8    and   C5_9  
REMARK   3   A    between atoms:  C5_9    and   C3_12 
REMARK   4   A    between atoms:  C6_8    and   N7_14 
REMARK   5   A    between atoms:  C8_15   and  C10_17 
REMARK   6   A    between atoms: C10_17   and  O11_18 
REMARK   7   A    between atoms: O11_18   and  C12_19 
REMARK   8   A    between atoms: C13_20   and  C14_25 
REMARK   9   A    between atoms: C14_25   and  N15_26 
REMARK   10  A    between atoms: C24_24   and  O25_32 
ROOT
ATOM      1 C27  MOL A   1       7.650 -18.160  -9.348  1.00  0.00    -0.024 A 
ATOM      2 C28  MOL A   1       7.648 -17.403 -10.534  1.00  0.00    -0.057 A 
ATOM      3 C29  MOL A   1       6.815 -16.285 -10.658  1.00  0.00    -0.061 A 
ATOM      4 C30  MOL A   1       5.979 -15.913  -9.602  1.00  0.00    -0.048 A 
ATOM      5 C31  MOL A   1       5.974 -16.655  -8.416  1.00  0.00     0.018 A 
ATOM      6 Br32 MOL A   1       4.845 -16.132  -6.963  1.00  0.00    -0.051 Br
ATOM      7 C33  MOL A   1       6.801 -17.777  -8.290  1.00  0.00    -0.043 A 
ENDROOT
BRANCH   1   8
ATOM      8  C6  MOL A   1       8.499 -19.409  -9.249  1.00  0.00     0.063 C 
BRANCH   8   9
ATOM      9  C5  MOL A   1       7.823 -20.434  -8.321  1.00  0.00     0.051 C 
BRANCH   9  12
ATOM     10  C1  MOL A   1       4.774 -21.990 -10.179  1.00  0.00     0.006 C 
ATOM     11  N2  MOL A   1       5.619 -21.078  -9.422  1.00  0.00    -0.359 N 
ATOM     12  C3  MOL A   1       6.974 -21.401  -9.094  1.00  0.00     0.222 C 
ATOM     13  O4  MOL A   1       7.467 -22.504  -9.456  1.00  0.00    -0.275 OA
ENDBRANCH   9  12
ENDBRANCH   8   9
BRANCH   8  14
ATOM     14  N7  MOL A   1       9.841 -19.074  -8.759  1.00  0.00    -0.346 N 
ATOM     15  C8  MOL A   1      10.953 -18.878  -9.634  1.00  0.00     0.258 C 
ATOM     16  O9  MOL A   1      10.810 -19.000 -10.880  1.00  0.00    -0.271 OA
BRANCH  15  17
ATOM     17 C10  MOL A   1      12.297 -18.511  -9.082  1.00  0.00     0.167 C 
BRANCH  17  18
ATOM     18 O11  MOL A   1      12.298 -18.614  -7.660  1.00  0.00    -0.480 OA
BRANCH  18  19
ATOM     19 C12  MOL A   1      13.269 -19.344  -6.970  1.00  0.00     0.166 A 
ATOM     20 C13  MOL A   1      14.504 -18.758  -6.609  1.00  0.00     0.012 A 
ATOM     21 C21  MOL A   1      15.419 -19.504  -5.846  1.00  0.00    -0.054 A 
ATOM     22 C22  MOL A   1      15.135 -20.822  -5.490  1.00  0.00    -0.058 A 
ATOM     23 C23  MOL A   1      13.937 -21.414  -5.890  1.00  0.00    -0.016 A 
ATOM     24 C24  MOL A   1      12.997 -20.681  -6.637  1.00  0.00     0.161 A 
BRANCH  20  25
ATOM     25 C14  MOL A   1      14.869 -17.350  -7.022  1.00  0.00     0.028 C 
BRANCH  25  26
ATOM     26 N15  MOL A   1      16.030 -16.869  -6.245  1.00  0.00    -0.287 NA
ATOM     27 C16  MOL A   1      15.889 -15.448  -5.886  1.00  0.00     0.064 C 
ATOM     28 C17  MOL A   1      17.062 -15.036  -6.754  1.00  0.00     0.272 C 
ATOM     29 F18  MOL A   1      18.147 -14.564  -6.036  1.00  0.00    -0.204 F 
ATOM     30 F19  MOL A   1      16.707 -14.234  -7.827  1.00  0.00    -0.204 F 
ATOM     31 C20  MOL A   1      17.166 -16.506  -7.110  1.00  0.00     0.064 C 
ENDBRANCH  25  26
ENDBRANCH  20  25
BRANCH  24  32
ATOM     32 O25  MOL A   1      11.782 -21.239  -7.060  1.00  0.00    -0.493 OA
ATOM     33 C26  MOL A   1      11.656 -22.197  -8.106  1.00  0.00     0.078 C 
ENDBRANCH  24  32
ENDBRANCH  18  19
ENDBRANCH  17  18
ENDBRANCH  15  17
ENDBRANCH   8  14
ENDBRANCH   1   8
TORSDOF 10
ENDMDL
MODEL 25
REMARK VINA RESULT:    -8.154      4.662      9.093
REMARK INTER + INTRA:         -13.969
REMARK INTER:                 -11.961
REMARK INTRA:                  -2.008
REMARK UNBOUND:                -1.048
REMARK  10 active torsions:
REMARK  status: ('A' for Active; 'I' for Inactive)
REMARK   1   A    between atoms:  C27_1   and   C6_8  
REMARK   2   A    between atoms:  C6_8    and   C5_9  
REMARK   3   A    between atoms:  C5_9    and   C3_12 
REMARK   4   A    between atoms:  C6_8    and   N7_14 
REMARK   5   A    between atoms:  C8_15   and  C10_17 
REMARK   6   A    between atoms: C10_17   and  O11_18 
REMARK   7   A    between atoms: O11_18   and  C12_19 
REMARK   8   A    between atoms: C13_20   and  C14_25 
REMARK   9   A    between atoms: C14_25   and  N15_26 
REMARK   10  A    between atoms: C24_24   and  O25_32 
ROOT
ATOM      1 C27  MOL A   1       6.704 -19.417  -9.824  1.00  0.00    -0.024 A 
ATOM      2 C28  MOL A   1       6.749 -20.338 -10.886  1.00  0.00    -0.057 A 
ATOM      3 C29  MOL A   1       6.129 -21.587 -10.767  1.00  0.00    -0.061 A 
ATOM      4 C30  MOL A   1       5.461 -21.928  -9.588  1.00  0.00    -0.048 A 
ATOM      5 C31  MOL A   1       5.406 -21.020  -8.525  1.00  0.00     0.018 A 
ATOM      6 Br32 MOL A   1       4.472 -21.480  -6.920  1.00  0.00    -0.051 Br
ATOM      7 C33  MOL A   1       6.028 -19.773  -8.639  1.00  0.00    -0.043 A 
ENDROOT
BRANCH   1   8
ATOM      8  C6  MOL A   1       7.438 -18.098  -9.933  1.00  0.00     0.063 C 
BRANCH   8   9
ATOM      9  C5  MOL A   1       7.806 -17.820 -11.402  1.00  0.00     0.051 C 
BRANCH   9  12
ATOM     10  C1  MOL A   1       5.463 -14.727 -11.747  1.00  0.00     0.006 C 
ATOM     11  N2  MOL A   1       6.327 -15.757 -11.189  1.00  0.00    -0.359 N 
ATOM     12  C3  MOL A   1       6.910 -16.778 -12.006  1.00  0.00     0.222 C 
ATOM     13  O4  MOL A   1       6.675 -16.807 -13.245  1.00  0.00    -0.275 OA
ENDBRANCH   9  12
ENDBRANCH   8   9
BRANCH   8  14
ATOM     14  N7  MOL A   1       8.640 -18.114  -9.094  1.00  0.00    -0.346 N 
ATOM     15  C8  MOL A   1       9.099 -16.961  -8.385  1.00  0.00     0.258 C 
ATOM     16  O9  MOL A   1       8.474 -15.871  -8.473  1.00  0.00    -0.271 OA
BRANCH  15  17
ATOM     17 C10  MOL A   1      10.320 -17.039  -7.519  1.00  0.00     0.167 C 
BRANCH  17  18
ATOM     18 O11  MOL A   1      11.392 -17.662  -8.223  1.00  0.00    -0.480 OA
BRANCH  18  19
ATOM     19 C12  MOL A   1      12.503 -18.194  -7.563  1.00  0.00     0.166 A 
ATOM     20 C13  MOL A   1      12.536 -19.549  -7.160  1.00  0.00     0.012 A 
ATOM     21 C21  MOL A   1      13.703 -20.061  -6.571  1.00  0.00    -0.054 A 
ATOM     22 C22  MOL A   1      14.802 -19.232  -6.340  1.00  0.00    -0.058 A 
ATOM     23 C23  MOL A   1      14.749 -17.883  -6.692  1.00  0.00    -0.016 A 
ATOM     24 C24  MOL A   1      13.597 -17.353  -7.302  1.00  0.00     0.161 A 
BRANCH  20  25
ATOM     25 C14  MOL A   1      11.345 -20.464  -7.346  1.00  0.00     0.028 C 
BRANCH  25  26
ATOM     26 N15  MOL A   1      11.383 -21.095  -8.681  1.00  0.00    -0.287 NA
ATOM     27 C16  MOL A   1      10.184 -20.766  -9.470  1.00  0.00     0.064 C 
ATOM     28 C17  MOL A   1       9.698 -22.202  -9.466  1.00  0.00     0.272 C 
ATOM     29 F18  MOL A   1       9.710 -22.795 -10.717  1.00  0.00    -0.204 F 
ATOM     30 F19  MOL A   1       8.516 -22.389  -8.768  1.00  0.00    -0.204 F 
ATOM     31 C20  MOL A   1      10.937 -22.498  -8.644  1.00  0.00     0.064 C 
ENDBRANCH  25  26
ENDBRANCH  20  25
BRANCH  24  32
ATOM     32 O25  MOL A   1      13.504 -16.003  -7.670  1.00  0.00    -0.493 OA
ATOM     33 C26  MOL A   1      14.621 -15.160  -7.932  1.00  0.00     0.078 C 
ENDBRANCH  24  32
ENDBRANCH  18  19
ENDBRANCH  17  18
ENDBRANCH  15  17
ENDBRANCH   8  14
ENDBRANCH   1   8
TORSDOF 10
ENDMDL
MODEL 26
REMARK VINA RESULT:    -8.154      4.987      9.555
REMARK INTER + INTRA:         -13.969
REMARK INTER:                 -13.114
REMARK INTRA:                  -0.855
REMARK UNBOUND:                -1.048
REMARK  10 active torsions:
REMARK  status: ('A' for Active; 'I' for Inactive)
REMARK   1   A    between atoms:  C27_1   and   C6_8  
REMARK   2   A    between atoms:  C6_8    and   C5_9  
REMARK   3   A    between atoms:  C5_9    and   C3_12 
REMARK   4   A    between atoms:  C6_8    and   N7_14 
REMARK   5   A    between atoms:  C8_15   and  C10_17 
REMARK   6   A    between atoms: C10_17   and  O11_18 
REMARK   7   A    between atoms: O11_18   and  C12_19 
REMARK   8   A    between atoms: C13_20   and  C14_25 
REMARK   9   A    between atoms: C14_25   and  N15_26 
REMARK   10  A    between atoms: C24_24   and  O25_32 
ROOT
ATOM      1 C27  MOL A   1       7.213 -16.991 -10.335  1.00  0.00    -0.024 A 
ATOM      2 C28  MOL A   1       7.600 -17.774 -11.438  1.00  0.00    -0.057 A 
ATOM      3 C29  MOL A   1       7.170 -17.442 -12.727  1.00  0.00    -0.061 A 
ATOM      4 C30  MOL A   1       6.350 -16.329 -12.928  1.00  0.00    -0.048 A 
ATOM      5 C31  MOL A   1       5.960 -15.539 -11.840  1.00  0.00     0.018 A 
ATOM      6 Br32 MOL A   1       4.856 -14.002 -12.118  1.00  0.00    -0.051 Br
ATOM      7 C33  MOL A   1       6.384 -15.871 -10.549  1.00  0.00    -0.043 A 
ENDROOT
BRANCH   1   8
ATOM      8  C6  MOL A   1       7.623 -17.398  -8.936  1.00  0.00     0.063 C 
BRANCH   8   9
ATOM      9  C5  MOL A   1       6.714 -16.712  -7.900  1.00  0.00     0.051 C 
BRANCH   9  12
ATOM     10  C1  MOL A   1       4.454 -19.859  -7.497  1.00  0.00     0.006 C 
ATOM     11  N2  MOL A   1       5.551 -18.978  -7.870  1.00  0.00    -0.359 N 
ATOM     12  C3  MOL A   1       5.563 -17.593  -7.509  1.00  0.00     0.222 C 
ATOM     13  O4  MOL A   1       4.602 -17.102  -6.855  1.00  0.00    -0.275 OA
ENDBRANCH   9  12
ENDBRANCH   8   9
BRANCH   8  14
ATOM     14  N7  MOL A   1       9.029 -17.054  -8.698  1.00  0.00    -0.346 N 
ATOM     15  C8  MOL A   1       9.959 -17.975  -8.125  1.00  0.00     0.258 C 
ATOM     16  O9  MOL A   1       9.586 -19.131  -7.792  1.00  0.00    -0.271 OA
BRANCH  15  17
ATOM     17 C10  MOL A   1      11.392 -17.581  -7.928  1.00  0.00     0.167 C 
BRANCH  17  18
ATOM     18 O11  MOL A   1      12.258 -18.667  -8.249  1.00  0.00    -0.480 OA
BRANCH  18  19
ATOM     19 C12  MOL A   1      13.247 -19.113  -7.369  1.00  0.00     0.166 A 
ATOM     20 C13  MOL A   1      14.406 -18.342  -7.120  1.00  0.00     0.012 A 
ATOM     21 C21  MOL A   1      15.336 -18.791  -6.167  1.00  0.00    -0.054 A 
ATOM     22 C22  MOL A   1      15.145 -20.006  -5.510  1.00  0.00    -0.058 A 
ATOM     23 C23  MOL A   1      14.026 -20.789  -5.794  1.00  0.00    -0.016 A 
ATOM     24 C24  MOL A   1      13.071 -20.351  -6.729  1.00  0.00     0.161 A 
BRANCH  20  25
ATOM     25 C14  MOL A   1      14.673 -17.046  -7.852  1.00  0.00     0.028 C 
BRANCH  25  26
ATOM     26 N15  MOL A   1      14.997 -15.969  -6.894  1.00  0.00    -0.287 NA
ATOM     27 C16  MOL A   1      14.146 -16.038  -5.694  1.00  0.00     0.064 C 
ATOM     28 C17  MOL A   1      13.460 -14.725  -6.016  1.00  0.00     0.272 C 
ATOM     29 F18  MOL A   1      13.741 -13.715  -5.112  1.00  0.00    -0.204 F 
ATOM     30 F19  MOL A   1      12.112 -14.856  -6.309  1.00  0.00    -0.204 F 
ATOM     31 C20  MOL A   1      14.344 -14.696  -7.247  1.00  0.00     0.064 C 
ENDBRANCH  25  26
ENDBRANCH  20  25
BRANCH  24  32
ATOM     32 O25  MOL A   1      11.933 -21.109  -7.044  1.00  0.00    -0.493 OA
ATOM     33 C26  MOL A   1      11.942 -22.270  -7.867  1.00  0.00     0.078 C 
ENDBRANCH  24  32
ENDBRANCH  18  19
ENDBRANCH  17  18
ENDBRANCH  15  17
ENDBRANCH   8  14
ENDBRANCH   1   8
TORSDOF 10
ENDMDL
MODEL 27
REMARK VINA RESULT:    -8.127      4.703      7.682
REMARK INTER + INTRA:         -13.926
REMARK INTER:                 -12.779
REMARK INTRA:                  -1.147
REMARK UNBOUND:                -1.048
REMARK  10 active torsions:
REMARK  status: ('A' for Active; 'I' for Inactive)
REMARK   1   A    between atoms:  C27_1   and   C6_8  
REMARK   2   A    between atoms:  C6_8    and   C5_9  
REMARK   3   A    between atoms:  C5_9    and   C3_12 
REMARK   4   A    between atoms:  C6_8    and   N7_14 
REMARK   5   A    between atoms:  C8_15   and  C10_17 
REMARK   6   A    between atoms: C10_17   and  O11_18 
REMARK   7   A    between atoms: O11_18   and  C12_19 
REMARK   8   A    between atoms: C13_20   and  C14_25 
REMARK   9   A    between atoms: C14_25   and  N15_26 
REMARK   10  A    between atoms: C24_24   and  O25_32 
ROOT
ATOM      1 C27  MOL A   1       5.563 -15.347 -10.488  1.00  0.00    -0.024 A 
ATOM      2 C28  MOL A   1       6.028 -15.180 -11.805  1.00  0.00    -0.057 A 
ATOM      3 C29  MOL A   1       5.252 -14.499 -12.749  1.00  0.00    -0.061 A 
ATOM      4 C30  MOL A   1       4.006 -13.979 -12.388  1.00  0.00    -0.048 A 
ATOM      5 C31  MOL A   1       3.533 -14.135 -11.081  1.00  0.00     0.018 A 
ATOM      6 Br32 MOL A   1       1.837 -13.403 -10.583  1.00  0.00    -0.051 Br
ATOM      7 C33  MOL A   1       4.303 -14.820 -10.136  1.00  0.00    -0.043 A 
ENDROOT
BRANCH   1   8
ATOM      8  C6  MOL A   1       6.375 -16.147  -9.493  1.00  0.00     0.063 C 
BRANCH   8   9
ATOM      9  C5  MOL A   1       7.647 -16.693 -10.168  1.00  0.00     0.051 C 
BRANCH   9  12
ATOM     10  C1  MOL A   1      11.020 -17.836  -8.591  1.00  0.00     0.006 C 
ATOM     11  N2  MOL A   1       9.923 -17.639  -9.527  1.00  0.00    -0.359 N 
ATOM     12  C3  MOL A   1       8.757 -16.886  -9.176  1.00  0.00     0.222 C 
ATOM     13  O4  MOL A   1       8.656 -16.376  -8.027  1.00  0.00    -0.275 OA
ENDBRANCH   9  12
ENDBRANCH   8   9
BRANCH   8  14
ATOM     14  N7  MOL A   1       5.570 -17.245  -8.946  1.00  0.00    -0.346 N 
ATOM     15  C8  MOL A   1       5.189 -17.307  -7.570  1.00  0.00     0.258 C 
ATOM     16  O9  MOL A   1       5.551 -16.404  -6.769  1.00  0.00    -0.271 OA
BRANCH  15  17
ATOM     17 C10  MOL A   1       4.343 -18.438  -7.068  1.00  0.00     0.167 C 
BRANCH  17  18
ATOM     18 O11  MOL A   1       5.062 -19.667  -7.136  1.00  0.00    -0.480 OA
BRANCH  18  19
ATOM     19 C12  MOL A   1       4.971 -20.519  -8.240  1.00  0.00     0.166 A 
ATOM     20 C13  MOL A   1       3.749 -21.143  -8.583  1.00  0.00     0.012 A 
ATOM     21 C21  MOL A   1       3.684 -21.928  -9.747  1.00  0.00    -0.054 A 
ATOM     22 C22  MOL A   1       4.821 -22.130 -10.529  1.00  0.00    -0.058 A 
ATOM     23 C23  MOL A   1       6.037 -21.555 -10.160  1.00  0.00    -0.016 A 
ATOM     24 C24  MOL A   1       6.122 -20.748  -9.010  1.00  0.00     0.161 A 
BRANCH  20  25
ATOM     25 C14  MOL A   1       2.509 -20.990  -7.731  1.00  0.00     0.028 C 
BRANCH  25  26
ATOM     26 N15  MOL A   1       1.294 -21.178  -8.549  1.00  0.00    -0.287 NA
ATOM     27 C16  MOL A   1       0.082 -20.763  -7.823  1.00  0.00     0.064 C 
ATOM     28 C17  MOL A   1      -0.461 -22.178  -7.772  1.00  0.00     0.272 C 
ATOM     29 F18  MOL A   1      -1.611 -22.359  -8.520  1.00  0.00    -0.204 F 
ATOM     30 F19  MOL A   1      -0.535 -22.701  -6.492  1.00  0.00    -0.204 F 
ATOM     31 C20  MOL A   1       0.806 -22.567  -8.509  1.00  0.00     0.064 C 
ENDBRANCH  25  26
ENDBRANCH  20  25
BRANCH  24  32
ATOM     32 O25  MOL A   1       7.325 -20.152  -8.605  1.00  0.00    -0.493 OA
ATOM     33 C26  MOL A   1       8.603 -20.773  -8.697  1.00  0.00     0.078 C 
ENDBRANCH  24  32
ENDBRANCH  18  19
ENDBRANCH  17  18
ENDBRANCH  15  17
ENDBRANCH   8  14
ENDBRANCH   1   8
TORSDOF 10
ENDMDL
MODEL 28
REMARK VINA RESULT:    -8.126      5.316      9.620
REMARK INTER + INTRA:         -13.925
REMARK INTER:                 -12.430
REMARK INTRA:                  -1.495
REMARK UNBOUND:                -1.048
REMARK  10 active torsions:
REMARK  status: ('A' for Active; 'I' for Inactive)
REMARK   1   A    between atoms:  C27_1   and   C6_8  
REMARK   2   A    between atoms:  C6_8    and   C5_9  
REMARK   3   A    between atoms:  C5_9    and   C3_12 
REMARK   4   A    between atoms:  C6_8    and   N7_14 
REMARK   5   A    between atoms:  C8_15   and  C10_17 
REMARK   6   A    between atoms: C10_17   and  O11_18 
REMARK   7   A    between atoms: O11_18   and  C12_19 
REMARK   8   A    between atoms: C13_20   and  C14_25 
REMARK   9   A    between atoms: C14_25   and  N15_26 
REMARK   10  A    between atoms: C24_24   and  O25_32 
ROOT
ATOM      1 C27  MOL A   1       7.625 -18.185  -9.438  1.00  0.00    -0.024 A 
ATOM      2 C28  MOL A   1       7.622 -17.369 -10.584  1.00  0.00    -0.057 A 
ATOM      3 C29  MOL A   1       6.817 -16.225 -10.636  1.00  0.00    -0.061 A 
ATOM      4 C30  MOL A   1       6.009 -15.887  -9.547  1.00  0.00    -0.048 A 
ATOM      5 C31  MOL A   1       6.005 -16.689  -8.400  1.00  0.00     0.018 A 
ATOM      6 Br32 MOL A   1       4.915 -16.212  -6.902  1.00  0.00    -0.051 Br
ATOM      7 C33  MOL A   1       6.804 -17.835  -8.347  1.00  0.00    -0.043 A 
ENDROOT
BRANCH   1   8
ATOM      8  C6  MOL A   1       8.442 -19.459  -9.418  1.00  0.00     0.063 C 
BRANCH   8   9
ATOM      9  C5  MOL A   1       7.774 -20.500  -8.502  1.00  0.00     0.051 C 
BRANCH   9  12
ATOM     10  C1  MOL A   1       4.479 -21.935 -10.006  1.00  0.00     0.006 C 
ATOM     11  N2  MOL A   1       5.421 -21.107  -9.266  1.00  0.00    -0.359 N 
ATOM     12  C3  MOL A   1       6.827 -21.379  -9.267  1.00  0.00     0.222 C 
ATOM     13  O4  MOL A   1       7.281 -22.360  -9.916  1.00  0.00    -0.275 OA
ENDBRANCH   9  12
ENDBRANCH   8   9
BRANCH   8  14
ATOM     14  N7  MOL A   1       9.810 -19.178  -8.968  1.00  0.00    -0.346 N 
ATOM     15  C8  MOL A   1      10.896 -18.993  -9.879  1.00  0.00     0.258 C 
ATOM     16  O9  MOL A   1      10.705 -19.078 -11.121  1.00  0.00    -0.271 OA
BRANCH  15  17
ATOM     17 C10  MOL A   1      12.270 -18.681  -9.366  1.00  0.00     0.167 C 
BRANCH  17  18
ATOM     18 O11  MOL A   1      12.305 -18.773  -7.944  1.00  0.00    -0.480 OA
BRANCH  18  19
ATOM     19 C12  MOL A   1      13.270 -19.528  -7.272  1.00  0.00     0.166 A 
ATOM     20 C13  MOL A   1      14.495 -18.954  -6.865  1.00  0.00     0.012 A 
ATOM     21 C21  MOL A   1      15.403 -19.729  -6.124  1.00  0.00    -0.054 A 
ATOM     22 C22  MOL A   1      15.121 -21.064  -5.833  1.00  0.00    -0.058 A 
ATOM     23 C23  MOL A   1      13.933 -21.643  -6.280  1.00  0.00    -0.016 A 
ATOM     24 C24  MOL A   1      13.000 -20.881  -7.007  1.00  0.00     0.161 A 
BRANCH  20  25
ATOM     25 C14  MOL A   1      14.859 -17.526  -7.207  1.00  0.00     0.028 C 
BRANCH  25  26
ATOM     26 N15  MOL A   1      14.332 -16.600  -6.184  1.00  0.00    -0.287 NA
ATOM     27 C16  MOL A   1      13.271 -15.736  -6.729  1.00  0.00     0.064 C 
ATOM     28 C17  MOL A   1      14.108 -14.483  -6.568  1.00  0.00     0.272 C 
ATOM     29 F18  MOL A   1      13.611 -13.599  -5.626  1.00  0.00    -0.204 F 
ATOM     30 F19  MOL A   1      14.454 -13.886  -7.770  1.00  0.00    -0.204 F 
ATOM     31 C20  MOL A   1      15.180 -15.407  -6.024  1.00  0.00     0.064 C 
ENDBRANCH  25  26
ENDBRANCH  20  25
BRANCH  24  32
ATOM     32 O25  MOL A   1      11.795 -21.426  -7.474  1.00  0.00    -0.493 OA
ATOM     33 C26  MOL A   1      11.686 -22.669  -8.160  1.00  0.00     0.078 C 
ENDBRANCH  24  32
ENDBRANCH  18  19
ENDBRANCH  17  18
ENDBRANCH  15  17
ENDBRANCH   8  14
ENDBRANCH   1   8
TORSDOF 10
ENDMDL
MODEL 29
REMARK VINA RESULT:    -8.107      1.180      1.425
REMARK INTER + INTRA:         -13.894
REMARK INTER:                 -13.687
REMARK INTRA:                  -0.207
REMARK UNBOUND:                -1.048
REMARK  10 active torsions:
REMARK  status: ('A' for Active; 'I' for Inactive)
REMARK   1   A    between atoms:  C27_1   and   C6_8  
REMARK   2   A    between atoms:  C6_8    and   C5_9  
REMARK   3   A    between atoms:  C5_9    and   C3_12 
REMARK   4   A    between atoms:  C6_8    and   N7_14 
REMARK   5   A    between atoms:  C8_15   and  C10_17 
REMARK   6   A    between atoms: C10_17   and  O11_18 
REMARK   7   A    between atoms: O11_18   and  C12_19 
REMARK   8   A    between atoms: C13_20   and  C14_25 
REMARK   9   A    between atoms: C14_25   and  N15_26 
REMARK   10  A    between atoms: C24_24   and  O25_32 
ROOT
ATOM      1 C27  MOL A   1       7.113 -19.781  -9.856  1.00  0.00    -0.024 A 
ATOM      2 C28  MOL A   1       7.354 -19.840  -8.471  1.00  0.00    -0.057 A 
ATOM      3 C29  MOL A   1       6.610 -20.703  -7.659  1.00  0.00    -0.061 A 
ATOM      4 C30  MOL A   1       5.620 -21.514  -8.221  1.00  0.00    -0.048 A 
ATOM      5 C31  MOL A   1       5.372 -21.467  -9.597  1.00  0.00     0.018 A 
ATOM      6 Br32 MOL A   1       4.031 -22.593 -10.368  1.00  0.00    -0.051 Br
ATOM      7 C33  MOL A   1       6.110 -20.602 -10.411  1.00  0.00    -0.043 A 
ENDROOT
BRANCH   1   8
ATOM      8  C6  MOL A   1       7.872 -18.793 -10.715  1.00  0.00     0.063 C 
BRANCH   8   9
ATOM      9  C5  MOL A   1       8.939 -18.072  -9.872  1.00  0.00     0.051 C 
BRANCH   9  12
ATOM     10  C1  MOL A   1      12.802 -18.557  -9.731  1.00  0.00     0.006 C 
ATOM     11  N2  MOL A   1      11.458 -18.051  -9.493  1.00  0.00    -0.359 N 
ATOM     12  C3  MOL A   1      10.314 -18.610 -10.147  1.00  0.00     0.222 C 
ATOM     13  O4  MOL A   1      10.453 -19.565 -10.959  1.00  0.00    -0.275 OA
ENDBRANCH   9  12
ENDBRANCH   8   9
BRANCH   8  14
ATOM     14  N7  MOL A   1       6.947 -17.825 -11.314  1.00  0.00    -0.346 N 
ATOM     15  C8  MOL A   1       6.625 -16.580 -10.689  1.00  0.00     0.258 C 
ATOM     16  O9  MOL A   1       7.132 -16.278  -9.576  1.00  0.00    -0.271 OA
BRANCH  15  17
ATOM     17 C10  MOL A   1       5.693 -15.615 -11.358  1.00  0.00     0.167 C 
BRANCH  17  18
ATOM     18 O11  MOL A   1       5.289 -14.597 -10.444  1.00  0.00    -0.480 OA
BRANCH  18  19
ATOM     19 C12  MOL A   1       3.982 -14.513  -9.958  1.00  0.00     0.166 A 
ATOM     20 C13  MOL A   1       2.952 -13.923 -10.727  1.00  0.00     0.012 A 
ATOM     21 C21  MOL A   1       1.637 -13.932 -10.233  1.00  0.00    -0.054 A 
ATOM     22 C22  MOL A   1       1.356 -14.471  -8.978  1.00  0.00    -0.058 A 
ATOM     23 C23  MOL A   1       2.382 -15.007  -8.199  1.00  0.00    -0.016 A 
ATOM     24 C24  MOL A   1       3.704 -15.029  -8.682  1.00  0.00     0.161 A 
BRANCH  20  25
ATOM     25 C14  MOL A   1       3.228 -13.281 -12.069  1.00  0.00     0.028 C 
BRANCH  25  26
ATOM     26 N15  MOL A   1       3.841 -11.950 -11.887  1.00  0.00    -0.287 NA
ATOM     27 C16  MOL A   1       3.016 -11.086 -11.026  1.00  0.00     0.064 C 
ATOM     28 C17  MOL A   1       2.709 -10.126 -12.158  1.00  0.00     0.272 C 
ATOM     29 F18  MOL A   1       3.262  -8.869 -11.986  1.00  0.00    -0.204 F 
ATOM     30 F19  MOL A   1       1.373 -10.106 -12.525  1.00  0.00    -0.204 F 
ATOM     31 C20  MOL A   1       3.555 -11.047 -13.015  1.00  0.00     0.064 C 
ENDBRANCH  25  26
ENDBRANCH  20  25
BRANCH  24  32
ATOM     32 O25  MOL A   1       4.763 -15.557  -7.930  1.00  0.00    -0.493 OA
ATOM     33 C26  MOL A   1       4.602 -16.369  -6.772  1.00  0.00     0.078 C 
ENDBRANCH  24  32
ENDBRANCH  18  19
ENDBRANCH  17  18
ENDBRANCH  15  17
ENDBRANCH   8  14
ENDBRANCH   1   8
TORSDOF 10
ENDMDL
MODEL 30
REMARK VINA RESULT:    -8.104      4.705      9.521
REMARK INTER + INTRA:         -13.890
REMARK INTER:                 -12.300
REMARK INTRA:                  -1.591
REMARK UNBOUND:                -1.048
REMARK  10 active torsions:
REMARK  status: ('A' for Active; 'I' for Inactive)
REMARK   1   A    between atoms:  C27_1   and   C6_8  
REMARK   2   A    between atoms:  C6_8    and   C5_9  
REMARK   3   A    between atoms:  C5_9    and   C3_12 
REMARK   4   A    between atoms:  C6_8    and   N7_14 
REMARK   5   A    between atoms:  C8_15   and  C10_17 
REMARK   6   A    between atoms: C10_17   and  O11_18 
REMARK   7   A    between atoms: O11_18   and  C12_19 
REMARK   8   A    between atoms: C13_20   and  C14_25 
REMARK   9   A    between atoms: C14_25   and  N15_26 
REMARK   10  A    between atoms: C24_24   and  O25_32 
ROOT
ATOM      1 C27  MOL A   1       7.010 -19.207  -9.901  1.00  0.00    -0.024 A 
ATOM      2 C28  MOL A   1       7.143 -20.050 -11.020  1.00  0.00    -0.057 A 
ATOM      3 C29  MOL A   1       6.546 -21.315 -11.028  1.00  0.00    -0.061 A 
ATOM      4 C30  MOL A   1       5.813 -21.752  -9.921  1.00  0.00    -0.048 A 
ATOM      5 C31  MOL A   1       5.670 -20.922  -8.803  1.00  0.00     0.018 A 
ATOM      6 Br32 MOL A   1       4.648 -21.512  -7.298  1.00  0.00    -0.051 Br
ATOM      7 C33  MOL A   1       6.270 -19.659  -8.790  1.00  0.00    -0.043 A 
ENDROOT
BRANCH   1   8
ATOM      8  C6  MOL A   1       7.719 -17.871  -9.872  1.00  0.00     0.063 C 
BRANCH   8   9
ATOM      9  C5  MOL A   1       7.435 -17.094 -11.170  1.00  0.00     0.051 C 
BRANCH   9  12
ATOM     10  C1  MOL A   1       4.808 -14.321 -11.932  1.00  0.00     0.006 C 
ATOM     11  N2  MOL A   1       5.868 -15.307 -12.085  1.00  0.00    -0.359 N 
ATOM     12  C3  MOL A   1       6.348 -16.077 -10.978  1.00  0.00     0.222 C 
ATOM     13  O4  MOL A   1       5.855 -15.908  -9.829  1.00  0.00    -0.275 OA
ENDBRANCH   9  12
ENDBRANCH   8   9
BRANCH   8  14
ATOM     14  N7  MOL A   1       9.162 -18.064  -9.690  1.00  0.00    -0.346 N 
ATOM     15  C8  MOL A   1       9.910 -17.374  -8.688  1.00  0.00     0.258 C 
ATOM     16  O9  MOL A   1       9.340 -16.553  -7.921  1.00  0.00    -0.271 OA
BRANCH  15  17
ATOM     17 C10  MOL A   1      11.379 -17.628  -8.528  1.00  0.00     0.167 C 
BRANCH  17  18
ATOM     18 O11  MOL A   1      11.632 -18.352  -7.326  1.00  0.00    -0.480 OA
BRANCH  18  19
ATOM     19 C12  MOL A   1      12.417 -19.508  -7.309  1.00  0.00     0.166 A 
ATOM     20 C13  MOL A   1      13.774 -19.465  -6.914  1.00  0.00     0.012 A 
ATOM     21 C21  MOL A   1      14.503 -20.663  -6.835  1.00  0.00    -0.054 A 
ATOM     22 C22  MOL A   1      13.912 -21.876  -7.188  1.00  0.00    -0.058 A 
ATOM     23 C23  MOL A   1      12.588 -21.910  -7.625  1.00  0.00    -0.016 A 
ATOM     24 C24  MOL A   1      11.832 -20.726  -7.693  1.00  0.00     0.161 A 
BRANCH  20  25
ATOM     25 C14  MOL A   1      14.464 -18.162  -6.575  1.00  0.00     0.028 C 
BRANCH  25  26
ATOM     26 N15  MOL A   1      15.045 -17.555  -7.790  1.00  0.00    -0.287 NA
ATOM     27 C16  MOL A   1      16.469 -17.226  -7.603  1.00  0.00     0.064 C 
ATOM     28 C17  MOL A   1      16.213 -15.736  -7.708  1.00  0.00     0.272 C 
ATOM     29 F18  MOL A   1      16.772 -15.154  -8.833  1.00  0.00    -0.204 F 
ATOM     30 F19  MOL A   1      16.464 -15.043  -6.535  1.00  0.00    -0.204 F 
ATOM     31 C20  MOL A   1      14.756 -16.114  -7.884  1.00  0.00     0.064 C 
ENDBRANCH  25  26
ENDBRANCH  20  25
BRANCH  24  32
ATOM     32 O25  MOL A   1      10.499 -20.717  -8.129  1.00  0.00    -0.493 OA
ATOM     33 C26  MOL A   1       9.953 -21.633  -9.072  1.00  0.00     0.078 C 
ENDBRANCH  24  32
ENDBRANCH  18  19
ENDBRANCH  17  18
ENDBRANCH  15  17
ENDBRANCH   8  14
ENDBRANCH   1   8
TORSDOF 10
ENDMDL
MODEL 31
REMARK VINA RESULT:    -8.095      5.729      9.779
REMARK INTER + INTRA:         -13.875
REMARK INTER:                 -12.393
REMARK INTRA:                  -1.482
REMARK UNBOUND:                -1.048
REMARK  10 active torsions:
REMARK  status: ('A' for Active; 'I' for Inactive)
REMARK   1   A    between atoms:  C27_1   and   C6_8  
REMARK   2   A    between atoms:  C6_8    and   C5_9  
REMARK   3   A    between atoms:  C5_9    and   C3_12 
REMARK   4   A    between atoms:  C6_8    and   N7_14 
REMARK   5   A    between atoms:  C8_15   and  C10_17 
REMARK   6   A    between atoms: C10_17   and  O11_18 
REMARK   7   A    between atoms: O11_18   and  C12_19 
REMARK   8   A    between atoms: C13_20   and  C14_25 
REMARK   9   A    between atoms: C14_25   and  N15_26 
REMARK   10  A    between atoms: C24_24   and  O25_32 
ROOT
ATOM      1 C27  MOL A   1       6.599 -19.323  -8.611  1.00  0.00    -0.024 A 
ATOM      2 C28  MOL A   1       7.748 -18.779  -9.214  1.00  0.00    -0.057 A 
ATOM      3 C29  MOL A   1       8.020 -17.411  -9.112  1.00  0.00    -0.061 A 
ATOM      4 C30  MOL A   1       7.149 -16.573  -8.409  1.00  0.00    -0.048 A 
ATOM      5 C31  MOL A   1       6.005 -17.102  -7.802  1.00  0.00     0.018 A 
ATOM      6 Br32 MOL A   1       4.825 -15.959  -6.821  1.00  0.00    -0.051 Br
ATOM      7 C33  MOL A   1       5.727 -18.469  -7.906  1.00  0.00    -0.043 A 
ENDROOT
BRANCH   1   8
ATOM      8  C6  MOL A   1       6.274 -20.791  -8.788  1.00  0.00     0.063 C 
BRANCH   8   9
ATOM      9  C5  MOL A   1       5.358 -21.269  -7.647  1.00  0.00     0.051 C 
BRANCH   9  12
ATOM     10  C1  MOL A   1       2.534 -22.338 -10.108  1.00  0.00     0.006 C 
ATOM     11  N2  MOL A   1       3.808 -21.878  -9.574  1.00  0.00    -0.359 N 
ATOM     12  C3  MOL A   1       4.029 -21.737  -8.167  1.00  0.00     0.222 C 
ATOM     13  O4  MOL A   1       3.106 -22.008  -7.351  1.00  0.00    -0.275 OA
ENDBRANCH   9  12
ENDBRANCH   8   9
BRANCH   8  14
ATOM     14  N7  MOL A   1       7.508 -21.584  -8.826  1.00  0.00    -0.346 N 
ATOM     15  C8  MOL A   1       7.691 -22.677  -9.727  1.00  0.00     0.258 C 
ATOM     16  O9  MOL A   1       6.773 -23.004 -10.525  1.00  0.00    -0.271 OA
BRANCH  15  17
ATOM     17 C10  MOL A   1       8.983 -23.438  -9.743  1.00  0.00     0.167 C 
BRANCH  17  18
ATOM     18 O11  MOL A   1      10.087 -22.552  -9.573  1.00  0.00    -0.480 OA
BRANCH  18  19
ATOM     19 C12  MOL A   1      11.102 -22.801  -8.645  1.00  0.00     0.166 A 
ATOM     20 C13  MOL A   1      11.468 -21.832  -7.684  1.00  0.00     0.012 A 
ATOM     21 C21  MOL A   1      12.439 -22.155  -6.721  1.00  0.00    -0.054 A 
ATOM     22 C22  MOL A   1      13.070 -23.398  -6.741  1.00  0.00    -0.058 A 
ATOM     23 C23  MOL A   1      12.743 -24.335  -7.722  1.00  0.00    -0.016 A 
ATOM     24 C24  MOL A   1      11.759 -24.042  -8.684  1.00  0.00     0.161 A 
BRANCH  20  25
ATOM     25 C14  MOL A   1      10.844 -20.454  -7.664  1.00  0.00     0.028 C 
BRANCH  25  26
ATOM     26 N15  MOL A   1      11.888 -19.417  -7.540  1.00  0.00    -0.287 NA
ATOM     27 C16  MOL A   1      11.339 -18.067  -7.751  1.00  0.00     0.064 C 
ATOM     28 C17  MOL A   1      12.133 -17.863  -9.026  1.00  0.00     0.272 C 
ATOM     29 F18  MOL A   1      13.101 -16.878  -8.927  1.00  0.00    -0.204 F 
ATOM     30 F19  MOL A   1      11.348 -17.766 -10.163  1.00  0.00    -0.204 F 
ATOM     31 C20  MOL A   1      12.667 -19.261  -8.781  1.00  0.00     0.064 C 
ENDBRANCH  25  26
ENDBRANCH  20  25
BRANCH  24  32
ATOM     32 O25  MOL A   1      11.402 -24.955  -9.687  1.00  0.00    -0.493 OA
ATOM     33 C26  MOL A   1      12.090 -25.101 -10.925  1.00  0.00     0.078 C 
ENDBRANCH  24  32
ENDBRANCH  18  19
ENDBRANCH  17  18
ENDBRANCH  15  17
ENDBRANCH   8  14
ENDBRANCH   1   8
TORSDOF 10
ENDMDL
MODEL 32
REMARK VINA RESULT:    -8.094      5.631      9.891
REMARK INTER + INTRA:         -13.874
REMARK INTER:                 -12.130
REMARK INTRA:                  -1.744
REMARK UNBOUND:                -1.048
REMARK  10 active torsions:
REMARK  status: ('A' for Active; 'I' for Inactive)
REMARK   1   A    between atoms:  C27_1   and   C6_8  
REMARK   2   A    between atoms:  C6_8    and   C5_9  
REMARK   3   A    between atoms:  C5_9    and   C3_12 
REMARK   4   A    between atoms:  C6_8    and   N7_14 
REMARK   5   A    between atoms:  C8_15   and  C10_17 
REMARK   6   A    between atoms: C10_17   and  O11_18 
REMARK   7   A    between atoms: O11_18   and  C12_19 
REMARK   8   A    between atoms: C13_20   and  C14_25 
REMARK   9   A    between atoms: C14_25   and  N15_26 
REMARK   10  A    between atoms: C24_24   and  O25_32 
ROOT
ATOM      1 C27  MOL A   1       6.508 -19.078  -8.663  1.00  0.00    -0.024 A 
ATOM      2 C28  MOL A   1       7.640 -18.396  -9.146  1.00  0.00    -0.057 A 
ATOM      3 C29  MOL A   1       7.825 -17.040  -8.858  1.00  0.00    -0.061 A 
ATOM      4 C30  MOL A   1       6.884 -16.352  -8.087  1.00  0.00    -0.048 A 
ATOM      5 C31  MOL A   1       5.755 -17.020  -7.597  1.00  0.00     0.018 A 
ATOM      6 Br32 MOL A   1       4.479 -16.083  -6.523  1.00  0.00    -0.051 Br
ATOM      7 C33  MOL A   1       5.565 -18.374  -7.888  1.00  0.00    -0.043 A 
ENDROOT
BRANCH   1   8
ATOM      8  C6  MOL A   1       6.279 -20.526  -9.040  1.00  0.00     0.063 C 
BRANCH   8   9
ATOM      9  C5  MOL A   1       5.438 -21.226  -7.958  1.00  0.00     0.051 C 
BRANCH   9  12
ATOM     10  C1  MOL A   1       2.645 -22.500 -10.354  1.00  0.00     0.006 C 
ATOM     11  N2  MOL A   1       3.939 -22.099  -9.822  1.00  0.00    -0.359 N 
ATOM     12  C3  MOL A   1       4.088 -21.623  -8.480  1.00  0.00     0.222 C 
ATOM     13  O4  MOL A   1       3.082 -21.537  -7.724  1.00  0.00    -0.275 OA
ENDBRANCH   9  12
ENDBRANCH   8   9
BRANCH   8  14
ATOM     14  N7  MOL A   1       7.562 -21.213  -9.222  1.00  0.00    -0.346 N 
ATOM     15  C8  MOL A   1       7.937 -21.829 -10.457  1.00  0.00     0.258 C 
ATOM     16  O9  MOL A   1       7.152 -21.806 -11.442  1.00  0.00    -0.271 OA
BRANCH  15  17
ATOM     17 C10  MOL A   1       9.272 -22.496 -10.597  1.00  0.00     0.167 C 
BRANCH  17  18
ATOM     18 O11  MOL A   1       9.546 -23.309  -9.458  1.00  0.00    -0.480 OA
BRANCH  18  19
ATOM     19 C12  MOL A   1      10.850 -23.554  -9.018  1.00  0.00     0.166 A 
ATOM     20 C13  MOL A   1      11.571 -22.581  -8.290  1.00  0.00     0.012 A 
ATOM     21 C21  MOL A   1      12.849 -22.899  -7.800  1.00  0.00    -0.054 A 
ATOM     22 C22  MOL A   1      13.420 -24.143  -8.068  1.00  0.00    -0.058 A 
ATOM     23 C23  MOL A   1      12.727 -25.084  -8.830  1.00  0.00    -0.016 A 
ATOM     24 C24  MOL A   1      11.437 -24.795  -9.315  1.00  0.00     0.161 A 
BRANCH  20  25
ATOM     25 C14  MOL A   1      11.006 -21.203  -8.025  1.00  0.00     0.028 C 
BRANCH  25  26
ATOM     26 N15  MOL A   1      11.929 -20.162  -8.523  1.00  0.00    -0.287 NA
ATOM     27 C16  MOL A   1      12.378 -19.273  -7.438  1.00  0.00     0.064 C 
ATOM     28 C17  MOL A   1      11.664 -18.073  -8.028  1.00  0.00     0.272 C 
ATOM     29 F18  MOL A   1      12.521 -17.083  -8.478  1.00  0.00    -0.204 F 
ATOM     30 F19  MOL A   1      10.624 -17.601  -7.243  1.00  0.00    -0.204 F 
ATOM     31 C20  MOL A   1      11.212 -19.023  -9.119  1.00  0.00     0.064 C 
ENDBRANCH  25  26
ENDBRANCH  20  25
BRANCH  24  32
ATOM     32 O25  MOL A   1      10.708 -25.712 -10.084  1.00  0.00    -0.493 OA
ATOM     33 C26  MOL A   1      10.795 -25.824 -11.501  1.00  0.00     0.078 C 
ENDBRANCH  24  32
ENDBRANCH  18  19
ENDBRANCH  17  18
ENDBRANCH  15  17
ENDBRANCH   8  14
ENDBRANCH   1   8
TORSDOF 10
ENDMDL
MODEL 33
REMARK VINA RESULT:    -8.092      5.316     10.305
REMARK INTER + INTRA:         -13.872
REMARK INTER:                 -12.807
REMARK INTRA:                  -1.065
REMARK UNBOUND:                -1.048
REMARK  10 active torsions:
REMARK  status: ('A' for Active; 'I' for Inactive)
REMARK   1   A    between atoms:  C27_1   and   C6_8  
REMARK   2   A    between atoms:  C6_8    and   C5_9  
REMARK   3   A    between atoms:  C5_9    and   C3_12 
REMARK   4   A    between atoms:  C6_8    and   N7_14 
REMARK   5   A    between atoms:  C8_15   and  C10_17 
REMARK   6   A    between atoms: C10_17   and  O11_18 
REMARK   7   A    between atoms: O11_18   and  C12_19 
REMARK   8   A    between atoms: C13_20   and  C14_25 
REMARK   9   A    between atoms: C14_25   and  N15_26 
REMARK   10  A    between atoms: C24_24   and  O25_32 
ROOT
ATOM      1 C27  MOL A   1       6.805 -17.652  -8.777  1.00  0.00    -0.024 A 
ATOM      2 C28  MOL A   1       6.386 -18.993  -8.695  1.00  0.00    -0.057 A 
ATOM      3 C29  MOL A   1       5.307 -19.348  -7.878  1.00  0.00    -0.061 A 
ATOM      4 C30  MOL A   1       4.637 -18.371  -7.136  1.00  0.00    -0.048 A 
ATOM      5 C31  MOL A   1       5.042 -17.033  -7.211  1.00  0.00     0.018 A 
ATOM      6 Br32 MOL A   1       4.111 -15.693  -6.212  1.00  0.00    -0.051 Br
ATOM      7 C33  MOL A   1       6.123 -16.675  -8.023  1.00  0.00    -0.043 A 
ENDROOT
BRANCH   1   8
ATOM      8  C6  MOL A   1       8.017 -17.287  -9.606  1.00  0.00     0.063 C 
BRANCH   8   9
ATOM      9  C5  MOL A   1       7.794 -17.694 -11.074  1.00  0.00     0.051 C 
BRANCH   9  12
ATOM     10  C1  MOL A   1       5.594 -14.562 -11.797  1.00  0.00     0.006 C 
ATOM     11  N2  MOL A   1       6.461 -15.524 -11.133  1.00  0.00    -0.359 N 
ATOM     12  C3  MOL A   1       6.891 -16.726 -11.782  1.00  0.00     0.222 C 
ATOM     13  O4  MOL A   1       6.516 -16.977 -12.959  1.00  0.00    -0.275 OA
ENDBRANCH   9  12
ENDBRANCH   8   9
BRANCH   8  14
ATOM     14  N7  MOL A   1       9.216 -17.938  -9.066  1.00  0.00    -0.346 N 
ATOM     15  C8  MOL A   1      10.026 -17.338  -8.053  1.00  0.00     0.258 C 
ATOM     16  O9  MOL A   1       9.732 -16.204  -7.593  1.00  0.00    -0.271 OA
BRANCH  15  17
ATOM     17 C10  MOL A   1      11.227 -18.059  -7.518  1.00  0.00     0.167 C 
BRANCH  17  18
ATOM     18 O11  MOL A   1      12.398 -17.683  -8.240  1.00  0.00    -0.480 OA
BRANCH  18  19
ATOM     19 C12  MOL A   1      13.677 -17.792  -7.688  1.00  0.00     0.166 A 
ATOM     20 C13  MOL A   1      14.385 -19.015  -7.717  1.00  0.00     0.012 A 
ATOM     21 C21  MOL A   1      15.698 -19.058  -7.222  1.00  0.00    -0.054 A 
ATOM     22 C22  MOL A   1      16.282 -17.922  -6.662  1.00  0.00    -0.058 A 
ATOM     23 C23  MOL A   1      15.563 -16.728  -6.588  1.00  0.00    -0.016 A 
ATOM     24 C24  MOL A   1      14.253 -16.655  -7.097  1.00  0.00     0.161 A 
BRANCH  20  25
ATOM     25 C14  MOL A   1      13.766 -20.281  -8.267  1.00  0.00     0.028 C 
BRANCH  25  26
ATOM     26 N15  MOL A   1      13.746 -21.336  -7.234  1.00  0.00    -0.287 NA
ATOM     27 C16  MOL A   1      13.974 -22.669  -7.818  1.00  0.00     0.064 C 
ATOM     28 C17  MOL A   1      12.576 -23.141  -7.470  1.00  0.00     0.272 C 
ATOM     29 F18  MOL A   1      12.549 -24.145  -6.518  1.00  0.00    -0.204 F 
ATOM     30 F19  MOL A   1      11.783 -23.396  -8.577  1.00  0.00    -0.204 F 
ATOM     31 C20  MOL A   1      12.376 -21.754  -6.892  1.00  0.00     0.064 C 
ENDBRANCH  25  26
ENDBRANCH  20  25
BRANCH  24  32
ATOM     32 O25  MOL A   1      13.496 -15.476  -7.041  1.00  0.00    -0.493 OA
ATOM     33 C26  MOL A   1      12.747 -15.052  -5.907  1.00  0.00     0.078 C 
ENDBRANCH  24  32
ENDBRANCH  18  19
ENDBRANCH  17  18
ENDBRANCH  15  17
ENDBRANCH   8  14
ENDBRANCH   1   8
TORSDOF 10
ENDMDL
MODEL 34
REMARK VINA RESULT:    -8.074      4.641      9.775
REMARK INTER + INTRA:         -13.842
REMARK INTER:                 -12.503
REMARK INTRA:                  -1.339
REMARK UNBOUND:                -1.048
REMARK  10 active torsions:
REMARK  status: ('A' for Active; 'I' for Inactive)
REMARK   1   A    between atoms:  C27_1   and   C6_8  
REMARK   2   A    between atoms:  C6_8    and   C5_9  
REMARK   3   A    between atoms:  C5_9    and   C3_12 
REMARK   4   A    between atoms:  C6_8    and   N7_14 
REMARK   5   A    between atoms:  C8_15   and  C10_17 
REMARK   6   A    between atoms: C10_17   and  O11_18 
REMARK   7   A    between atoms: O11_18   and  C12_19 
REMARK   8   A    between atoms: C13_20   and  C14_25 
REMARK   9   A    between atoms: C14_25   and  N15_26 
REMARK   10  A    between atoms: C24_24   and  O25_32 
ROOT
ATOM      1 C27  MOL A   1       7.028 -19.505 -10.137  1.00  0.00    -0.024 A 
ATOM      2 C28  MOL A   1       7.042 -20.495 -11.136  1.00  0.00    -0.057 A 
ATOM      3 C29  MOL A   1       6.393 -21.718 -10.928  1.00  0.00    -0.061 A 
ATOM      4 C30  MOL A   1       5.727 -21.963  -9.724  1.00  0.00    -0.048 A 
ATOM      5 C31  MOL A   1       5.704 -20.985  -8.724  1.00  0.00     0.018 A 
ATOM      6 Br32 MOL A   1       4.773 -21.313  -7.085  1.00  0.00    -0.051 Br
ATOM      7 C33  MOL A   1       6.355 -19.764  -8.926  1.00  0.00    -0.043 A 
ENDROOT
BRANCH   1   8
ATOM      8  C6  MOL A   1       7.793 -18.214 -10.340  1.00  0.00     0.063 C 
BRANCH   8   9
ATOM      9  C5  MOL A   1       7.299 -17.504 -11.613  1.00  0.00     0.051 C 
BRANCH   9  12
ATOM     10  C1  MOL A   1       5.119 -14.285 -11.861  1.00  0.00     0.006 C 
ATOM     11  N2  MOL A   1       5.710 -15.585 -12.144  1.00  0.00    -0.359 N 
ATOM     12  C3  MOL A   1       6.716 -16.156 -11.300  1.00  0.00     0.222 C 
ATOM     13  O4  MOL A   1       7.119 -15.528 -10.283  1.00  0.00    -0.275 OA
ENDBRANCH   9  12
ENDBRANCH   8   9
BRANCH   8  14
ATOM     14  N7  MOL A   1       9.232 -18.484 -10.424  1.00  0.00    -0.346 N 
ATOM     15  C8  MOL A   1      10.172 -17.943  -9.493  1.00  0.00     0.258 C 
ATOM     16  O9  MOL A   1       9.781 -17.195  -8.559  1.00  0.00    -0.271 OA
BRANCH  15  17
ATOM     17 C10  MOL A   1      11.630 -18.272  -9.610  1.00  0.00     0.167 C 
BRANCH  17  18
ATOM     18 O11  MOL A   1      12.150 -18.689  -8.350  1.00  0.00    -0.480 OA
BRANCH  18  19
ATOM     19 C12  MOL A   1      13.099 -19.709  -8.239  1.00  0.00     0.166 A 
ATOM     20 C13  MOL A   1      14.474 -19.453  -8.444  1.00  0.00     0.012 A 
ATOM     21 C21  MOL A   1      15.401 -20.490  -8.245  1.00  0.00    -0.054 A 
ATOM     22 C22  MOL A   1      14.967 -21.770  -7.898  1.00  0.00    -0.058 A 
ATOM     23 C23  MOL A   1      13.606 -22.032  -7.746  1.00  0.00    -0.016 A 
ATOM     24 C24  MOL A   1      12.660 -21.004  -7.920  1.00  0.00     0.161 A 
BRANCH  20  25
ATOM     25 C14  MOL A   1      14.976 -18.092  -8.873  1.00  0.00     0.028 C 
BRANCH  25  26
ATOM     26 N15  MOL A   1      16.107 -17.668  -8.022  1.00  0.00    -0.287 NA
ATOM     27 C16  MOL A   1      15.693 -16.656  -7.036  1.00  0.00     0.064 C 
ATOM     28 C17  MOL A   1      16.550 -15.579  -7.672  1.00  0.00     0.272 C 
ATOM     29 F18  MOL A   1      17.600 -15.161  -6.874  1.00  0.00    -0.204 F 
ATOM     30 F19  MOL A   1      15.820 -14.542  -8.229  1.00  0.00    -0.204 F 
ATOM     31 C20  MOL A   1      16.942 -16.646  -8.676  1.00  0.00     0.064 C 
ENDBRANCH  25  26
ENDBRANCH  20  25
BRANCH  24  32
ATOM     32 O25  MOL A   1      11.283 -21.227  -7.777  1.00  0.00    -0.493 OA
ATOM     33 C26  MOL A   1      10.415 -21.609  -8.839  1.00  0.00     0.078 C 
ENDBRANCH  24  32
ENDBRANCH  18  19
ENDBRANCH  17  18
ENDBRANCH  15  17
ENDBRANCH   8  14
ENDBRANCH   1   8
TORSDOF 10
ENDMDL
MODEL 35
REMARK VINA RESULT:    -8.070      2.009      2.496
REMARK INTER + INTRA:         -13.837
REMARK INTER:                 -14.110
REMARK INTRA:                   0.273
REMARK UNBOUND:                -1.048
REMARK  10 active torsions:
REMARK  status: ('A' for Active; 'I' for Inactive)
REMARK   1   A    between atoms:  C27_1   and   C6_8  
REMARK   2   A    between atoms:  C6_8    and   C5_9  
REMARK   3   A    between atoms:  C5_9    and   C3_12 
REMARK   4   A    between atoms:  C6_8    and   N7_14 
REMARK   5   A    between atoms:  C8_15   and  C10_17 
REMARK   6   A    between atoms: C10_17   and  O11_18 
REMARK   7   A    between atoms: O11_18   and  C12_19 
REMARK   8   A    between atoms: C13_20   and  C14_25 
REMARK   9   A    between atoms: C14_25   and  N15_26 
REMARK   10  A    between atoms: C24_24   and  O25_32 
ROOT
ATOM      1 C27  MOL A   1       4.880 -21.031  -9.359  1.00  0.00    -0.024 A 
ATOM      2 C28  MOL A   1       4.829 -22.043 -10.334  1.00  0.00    -0.057 A 
ATOM      3 C29  MOL A   1       3.658 -22.786 -10.521  1.00  0.00    -0.061 A 
ATOM      4 C30  MOL A   1       2.530 -22.527  -9.738  1.00  0.00    -0.048 A 
ATOM      5 C31  MOL A   1       2.567 -21.521  -8.766  1.00  0.00     0.018 A 
ATOM      6 Br32 MOL A   1       1.016 -21.152  -7.709  1.00  0.00    -0.051 Br
ATOM      7 C33  MOL A   1       3.737 -20.779  -8.573  1.00  0.00    -0.043 A 
ENDROOT
BRANCH   1   8
ATOM      8  C6  MOL A   1       6.172 -20.281  -9.113  1.00  0.00     0.063 C 
BRANCH   8   9
ATOM      9  C5  MOL A   1       7.093 -21.104  -8.194  1.00  0.00     0.051 C 
BRANCH   9  12
ATOM     10  C1  MOL A   1      10.678 -19.606  -8.473  1.00  0.00     0.006 C 
ATOM     11  N2  MOL A   1       9.274 -19.791  -8.134  1.00  0.00    -0.359 N 
ATOM     12  C3  MOL A   1       8.537 -20.938  -8.570  1.00  0.00     0.222 C 
ATOM     13  O4  MOL A   1       9.099 -21.821  -9.273  1.00  0.00    -0.275 OA
ENDBRANCH   9  12
ENDBRANCH   8   9
BRANCH   8  14
ATOM     14  N7  MOL A   1       5.893 -18.968  -8.522  1.00  0.00    -0.346 N 
ATOM     15  C8  MOL A   1       6.363 -17.749  -9.100  1.00  0.00     0.258 C 
ATOM     16  O9  MOL A   1       7.055 -17.770 -10.153  1.00  0.00    -0.271 OA
BRANCH  15  17
ATOM     17 C10  MOL A   1       6.027 -16.431  -8.469  1.00  0.00     0.167 C 
BRANCH  17  18
ATOM     18 O11  MOL A   1       5.434 -15.556  -9.426  1.00  0.00    -0.480 OA
BRANCH  18  19
ATOM     19 C12  MOL A   1       4.111 -15.122  -9.313  1.00  0.00     0.166 A 
ATOM     20 C13  MOL A   1       3.451 -14.499 -10.397  1.00  0.00     0.012 A 
ATOM     21 C21  MOL A   1       2.096 -14.149 -10.265  1.00  0.00    -0.054 A 
ATOM     22 C22  MOL A   1       1.422 -14.370  -9.064  1.00  0.00    -0.058 A 
ATOM     23 C23  MOL A   1       2.089 -14.939  -7.980  1.00  0.00    -0.016 A 
ATOM     24 C24  MOL A   1       3.440 -15.315  -8.094  1.00  0.00     0.161 A 
BRANCH  20  25
ATOM     25 C14  MOL A   1       4.164 -14.195 -11.696  1.00  0.00     0.028 C 
BRANCH  25  26
ATOM     26 N15  MOL A   1       4.573 -12.777 -11.741  1.00  0.00    -0.287 NA
ATOM     27 C16  MOL A   1       3.536 -11.896 -11.177  1.00  0.00     0.064 C 
ATOM     28 C17  MOL A   1       3.264 -11.237 -12.515  1.00  0.00     0.272 C 
ATOM     29 F18  MOL A   1       3.625  -9.902 -12.561  1.00  0.00    -0.204 F 
ATOM     30 F19  MOL A   1       1.999 -11.494 -13.017  1.00  0.00    -0.204 F 
ATOM     31 C20  MOL A   1       4.329 -12.169 -13.060  1.00  0.00     0.064 C 
ENDBRANCH  25  26
ENDBRANCH  20  25
BRANCH  24  32
ATOM     32 O25  MOL A   1       4.147 -15.889  -7.027  1.00  0.00    -0.493 OA
ATOM     33 C26  MOL A   1       4.024 -15.483  -5.668  1.00  0.00     0.078 C 
ENDBRANCH  24  32
ENDBRANCH  18  19
ENDBRANCH  17  18
ENDBRANCH  15  17
ENDBRANCH   8  14
ENDBRANCH   1   8
TORSDOF 10
ENDMDL
MODEL 36
REMARK VINA RESULT:    -8.037      4.655      7.892
REMARK INTER + INTRA:         -13.784
REMARK INTER:                 -12.654
REMARK INTRA:                  -1.131
REMARK UNBOUND:                -1.048
REMARK  10 active torsions:
REMARK  status: ('A' for Active; 'I' for Inactive)
REMARK   1   A    between atoms:  C27_1   and   C6_8  
REMARK   2   A    between atoms:  C6_8    and   C5_9  
REMARK   3   A    between atoms:  C5_9    and   C3_12 
REMARK   4   A    between atoms:  C6_8    and   N7_14 
REMARK   5   A    between atoms:  C8_15   and  C10_17 
REMARK   6   A    between atoms: C10_17   and  O11_18 
REMARK   7   A    between atoms: O11_18   and  C12_19 
REMARK   8   A    between atoms: C13_20   and  C14_25 
REMARK   9   A    between atoms: C14_25   and  N15_26 
REMARK   10  A    between atoms: C24_24   and  O25_32 
ROOT
ATOM      1 C27  MOL A   1       5.263 -15.161 -10.309  1.00  0.00    -0.024 A 
ATOM      2 C28  MOL A   1       4.076 -14.814  -9.638  1.00  0.00    -0.057 A 
ATOM      3 C29  MOL A   1       3.176 -13.910 -10.213  1.00  0.00    -0.061 A 
ATOM      4 C30  MOL A   1       3.451 -13.345 -11.461  1.00  0.00    -0.048 A 
ATOM      5 C31  MOL A   1       4.626 -13.684 -12.141  1.00  0.00     0.018 A 
ATOM      6 Br32 MOL A   1       4.991 -12.927 -13.860  1.00  0.00    -0.051 Br
ATOM      7 C33  MOL A   1       5.531 -14.584 -11.567  1.00  0.00    -0.043 A 
ENDROOT
BRANCH   1   8
ATOM      8  C6  MOL A   1       6.265 -16.083  -9.649  1.00  0.00     0.063 C 
BRANCH   8   9
ATOM      9  C5  MOL A   1       7.339 -16.510 -10.665  1.00  0.00     0.051 C 
BRANCH   9  12
ATOM     10  C1  MOL A   1      10.078 -17.278  -8.005  1.00  0.00     0.006 C 
ATOM     11  N2  MOL A   1       8.941 -16.685  -8.693  1.00  0.00    -0.359 N 
ATOM     12  C3  MOL A   1       8.522 -17.136  -9.986  1.00  0.00     0.222 C 
ATOM     13  O4  MOL A   1       9.146 -18.068 -10.563  1.00  0.00    -0.275 OA
ENDBRANCH   9  12
ENDBRANCH   8   9
BRANCH   8  14
ATOM     14  N7  MOL A   1       5.585 -17.257  -9.091  1.00  0.00    -0.346 N 
ATOM     15  C8  MOL A   1       5.287 -17.385  -7.700  1.00  0.00     0.258 C 
ATOM     16  O9  MOL A   1       5.617 -16.475  -6.893  1.00  0.00    -0.271 OA
BRANCH  15  17
ATOM     17 C10  MOL A   1       4.566 -18.596  -7.186  1.00  0.00     0.167 C 
BRANCH  17  18
ATOM     18 O11  MOL A   1       5.391 -19.753  -7.300  1.00  0.00    -0.480 OA
BRANCH  18  19
ATOM     19 C12  MOL A   1       5.325 -20.605  -8.405  1.00  0.00     0.166 A 
ATOM     20 C13  MOL A   1       4.115 -21.238  -8.769  1.00  0.00     0.012 A 
ATOM     21 C21  MOL A   1       4.075 -22.023  -9.934  1.00  0.00    -0.054 A 
ATOM     22 C22  MOL A   1       5.226 -22.217 -10.697  1.00  0.00    -0.058 A 
ATOM     23 C23  MOL A   1       6.432 -21.632 -10.308  1.00  0.00    -0.016 A 
ATOM     24 C24  MOL A   1       6.491 -20.825  -9.156  1.00  0.00     0.161 A 
BRANCH  20  25
ATOM     25 C14  MOL A   1       2.859 -21.094  -7.938  1.00  0.00     0.028 C 
BRANCH  25  26
ATOM     26 N15  MOL A   1       1.885 -22.147  -8.289  1.00  0.00    -0.287 NA
ATOM     27 C16  MOL A   1       0.671 -21.580  -8.900  1.00  0.00     0.064 C 
ATOM     28 C17  MOL A   1      -0.202 -22.001  -7.734  1.00  0.00     0.272 C 
ATOM     29 F18  MOL A   1      -1.132 -22.973  -8.059  1.00  0.00    -0.204 F 
ATOM     30 F19  MOL A   1      -0.727 -20.937  -7.019  1.00  0.00    -0.204 F 
ATOM     31 C20  MOL A   1       1.072 -22.561  -7.132  1.00  0.00     0.064 C 
ENDBRANCH  25  26
ENDBRANCH  20  25
BRANCH  24  32
ATOM     32 O25  MOL A   1       7.683 -20.220  -8.731  1.00  0.00    -0.493 OA
ATOM     33 C26  MOL A   1       8.955 -20.860  -8.728  1.00  0.00     0.078 C 
ENDBRANCH  24  32
ENDBRANCH  18  19
ENDBRANCH  17  18
ENDBRANCH  15  17
ENDBRANCH   8  14
ENDBRANCH   1   8
TORSDOF 10
ENDMDL
MODEL 37
REMARK VINA RESULT:    -8.015      5.255      9.745
REMARK INTER + INTRA:         -13.749
REMARK INTER:                 -12.789
REMARK INTRA:                  -0.961
REMARK UNBOUND:                -1.048
REMARK  10 active torsions:
REMARK  status: ('A' for Active; 'I' for Inactive)
REMARK   1   A    between atoms:  C27_1   and   C6_8  
REMARK   2   A    between atoms:  C6_8    and   C5_9  
REMARK   3   A    between atoms:  C5_9    and   C3_12 
REMARK   4   A    between atoms:  C6_8    and   N7_14 
REMARK   5   A    between atoms:  C8_15   and  C10_17 
REMARK   6   A    between atoms: C10_17   and  O11_18 
REMARK   7   A    between atoms: O11_18   and  C12_19 
REMARK   8   A    between atoms: C13_20   and  C14_25 
REMARK   9   A    between atoms: C14_25   and  N15_26 
REMARK   10  A    between atoms: C24_24   and  O25_32 
ROOT
ATOM      1 C27  MOL A   1       7.233 -16.980 -10.072  1.00  0.00    -0.024 A 
ATOM      2 C28  MOL A   1       7.713 -17.903 -11.019  1.00  0.00    -0.057 A 
ATOM      3 C29  MOL A   1       7.381 -17.766 -12.371  1.00  0.00    -0.061 A 
ATOM      4 C30  MOL A   1       6.569 -16.708 -12.790  1.00  0.00    -0.048 A 
ATOM      5 C31  MOL A   1       6.088 -15.782 -11.859  1.00  0.00     0.018 A 
ATOM      6 Br32 MOL A   1       4.994 -14.322 -12.437  1.00  0.00    -0.051 Br
ATOM      7 C33  MOL A   1       6.413 -15.918 -10.505  1.00  0.00    -0.043 A 
ENDROOT
BRANCH   1   8
ATOM      8  C6  MOL A   1       7.537 -17.176  -8.602  1.00  0.00     0.063 C 
BRANCH   8   9
ATOM      9  C5  MOL A   1       6.399 -16.591  -7.746  1.00  0.00     0.051 C 
BRANCH   9  12
ATOM     10  C1  MOL A   1       4.514 -19.996  -7.587  1.00  0.00     0.006 C 
ATOM     11  N2  MOL A   1       5.526 -18.981  -7.845  1.00  0.00    -0.359 N 
ATOM     12  C3  MOL A   1       5.332 -17.612  -7.475  1.00  0.00     0.222 C 
ATOM     13  O4  MOL A   1       4.261 -17.253  -6.915  1.00  0.00    -0.275 OA
ENDBRANCH   9  12
ENDBRANCH   8   9
BRANCH   8  14
ATOM     14  N7  MOL A   1       8.817 -16.548  -8.259  1.00  0.00    -0.346 N 
ATOM     15  C8  MOL A   1       9.977 -17.307  -7.909  1.00  0.00     0.258 C 
ATOM     16  O9  MOL A   1       9.926 -18.565  -7.875  1.00  0.00    -0.271 OA
BRANCH  15  17
ATOM     17 C10  MOL A   1      11.268 -16.615  -7.592  1.00  0.00     0.167 C 
BRANCH  17  18
ATOM     18 O11  MOL A   1      12.246 -17.557  -7.158  1.00  0.00    -0.480 OA
BRANCH  18  19
ATOM     19 C12  MOL A   1      13.510 -17.639  -7.747  1.00  0.00     0.166 A 
ATOM     20 C13  MOL A   1      14.412 -16.551  -7.696  1.00  0.00     0.012 A 
ATOM     21 C21  MOL A   1      15.702 -16.704  -8.232  1.00  0.00    -0.054 A 
ATOM     22 C22  MOL A   1      16.074 -17.897  -8.851  1.00  0.00    -0.058 A 
ATOM     23 C23  MOL A   1      15.165 -18.952  -8.945  1.00  0.00    -0.016 A 
ATOM     24 C24  MOL A   1      13.875 -18.829  -8.397  1.00  0.00     0.161 A 
BRANCH  20  25
ATOM     25 C14  MOL A   1      14.026 -15.224  -7.081  1.00  0.00     0.028 C 
BRANCH  25  26
ATOM     26 N15  MOL A   1      14.752 -15.013  -5.812  1.00  0.00    -0.287 NA
ATOM     27 C16  MOL A   1      14.364 -16.005  -4.794  1.00  0.00     0.064 C 
ATOM     28 C17  MOL A   1      13.727 -14.953  -3.907  1.00  0.00     0.272 C 
ATOM     29 F18  MOL A   1      14.388 -14.763  -2.707  1.00  0.00    -0.204 F 
ATOM     30 F19  MOL A   1      12.354 -15.091  -3.776  1.00  0.00    -0.204 F 
ATOM     31 C20  MOL A   1      14.132 -13.965  -4.984  1.00  0.00     0.064 C 
ENDBRANCH  25  26
ENDBRANCH  20  25
BRANCH  24  32
ATOM     32 O25  MOL A   1      12.932 -19.864  -8.472  1.00  0.00    -0.493 OA
ATOM     33 C26  MOL A   1      13.075 -21.131  -7.837  1.00  0.00     0.078 C 
ENDBRANCH  24  32
ENDBRANCH  18  19
ENDBRANCH  17  18
ENDBRANCH  15  17
ENDBRANCH   8  14
ENDBRANCH   1   8
TORSDOF 10
ENDMDL
MODEL 38
REMARK VINA RESULT:    -8.013      5.730     10.215
REMARK INTER + INTRA:         -13.746
REMARK INTER:                 -12.417
REMARK INTRA:                  -1.328
REMARK UNBOUND:                -1.048
REMARK  10 active torsions:
REMARK  status: ('A' for Active; 'I' for Inactive)
REMARK   1   A    between atoms:  C27_1   and   C6_8  
REMARK   2   A    between atoms:  C6_8    and   C5_9  
REMARK   3   A    between atoms:  C5_9    and   C3_12 
REMARK   4   A    between atoms:  C6_8    and   N7_14 
REMARK   5   A    between atoms:  C8_15   and  C10_17 
REMARK   6   A    between atoms: C10_17   and  O11_18 
REMARK   7   A    between atoms: O11_18   and  C12_19 
REMARK   8   A    between atoms: C13_20   and  C14_25 
REMARK   9   A    between atoms: C14_25   and  N15_26 
REMARK   10  A    between atoms: C24_24   and  O25_32 
ROOT
ATOM      1 C27  MOL A   1       7.425 -17.925 -10.399  1.00  0.00    -0.024 A 
ATOM      2 C28  MOL A   1       7.766 -18.440 -11.662  1.00  0.00    -0.057 A 
ATOM      3 C29  MOL A   1       7.404 -17.756 -12.828  1.00  0.00    -0.061 A 
ATOM      4 C30  MOL A   1       6.698 -16.552 -12.743  1.00  0.00    -0.048 A 
ATOM      5 C31  MOL A   1       6.355 -16.027 -11.492  1.00  0.00     0.018 A 
ATOM      6 Br32 MOL A   1       5.408 -14.368 -11.377  1.00  0.00    -0.051 Br
ATOM      7 C33  MOL A   1       6.711 -16.711 -10.326  1.00  0.00    -0.043 A 
ENDROOT
BRANCH   1   8
ATOM      8  C6  MOL A   1       7.757 -18.707  -9.147  1.00  0.00     0.063 C 
BRANCH   8   9
ATOM      9  C5  MOL A   1       6.602 -18.598  -8.135  1.00  0.00     0.051 C 
BRANCH   9  12
ATOM     10  C1  MOL A   1       3.643 -21.057  -7.524  1.00  0.00     0.006 C 
ATOM     11  N2  MOL A   1       4.454 -19.849  -7.578  1.00  0.00    -0.359 N 
ATOM     12  C3  MOL A   1       5.794 -19.862  -8.082  1.00  0.00     0.222 C 
ATOM     13  O4  MOL A   1       6.306 -20.941  -8.490  1.00  0.00    -0.275 OA
ENDBRANCH   9  12
ENDBRANCH   8   9
BRANCH   8  14
ATOM     14  N7  MOL A   1       9.007 -18.217  -8.558  1.00  0.00    -0.346 N 
ATOM     15  C8  MOL A   1      10.279 -18.790  -8.866  1.00  0.00     0.258 C 
ATOM     16  O9  MOL A   1      10.362 -19.762  -9.664  1.00  0.00    -0.271 OA
BRANCH  15  17
ATOM     17 C10  MOL A   1      11.530 -18.234  -8.256  1.00  0.00     0.167 C 
BRANCH  17  18
ATOM     18 O11  MOL A   1      12.586 -19.189  -8.322  1.00  0.00    -0.480 OA
BRANCH  18  19
ATOM     19 C12  MOL A   1      13.269 -19.620  -7.182  1.00  0.00     0.166 A 
ATOM     20 C13  MOL A   1      14.390 -18.913  -6.690  1.00  0.00     0.012 A 
ATOM     21 C21  MOL A   1      14.998 -19.337  -5.496  1.00  0.00    -0.054 A 
ATOM     22 C22  MOL A   1      14.532 -20.469  -4.828  1.00  0.00    -0.058 A 
ATOM     23 C23  MOL A   1      13.457 -21.195  -5.342  1.00  0.00    -0.016 A 
ATOM     24 C24  MOL A   1      12.820 -20.778  -6.526  1.00  0.00     0.161 A 
BRANCH  20  25
ATOM     25 C14  MOL A   1      14.956 -17.713  -7.416  1.00  0.00     0.028 C 
BRANCH  25  26
ATOM     26 N15  MOL A   1      15.984 -17.048  -6.589  1.00  0.00    -0.287 NA
ATOM     27 C16  MOL A   1      15.671 -15.625  -6.377  1.00  0.00     0.064 C 
ATOM     28 C17  MOL A   1      16.875 -15.165  -7.175  1.00  0.00     0.272 C 
ATOM     29 F18  MOL A   1      17.835 -14.522  -6.412  1.00  0.00    -0.204 F 
ATOM     30 F19  MOL A   1      16.548 -14.498  -8.344  1.00  0.00    -0.204 F 
ATOM     31 C20  MOL A   1      17.157 -16.640  -7.382  1.00  0.00     0.064 C 
ENDBRANCH  25  26
ENDBRANCH  20  25
BRANCH  24  32
ATOM     32 O25  MOL A   1      11.738 -21.480  -7.076  1.00  0.00    -0.493 OA
ATOM     33 C26  MOL A   1      11.858 -22.512  -8.049  1.00  0.00     0.078 C 
ENDBRANCH  24  32
ENDBRANCH  18  19
ENDBRANCH  17  18
ENDBRANCH  15  17
ENDBRANCH   8  14
ENDBRANCH   1   8
TORSDOF 10
ENDMDL
MODEL 39
REMARK VINA RESULT:    -8.012      5.704     10.218
REMARK INTER + INTRA:         -13.744
REMARK INTER:                 -12.656
REMARK INTRA:                  -1.089
REMARK UNBOUND:                -1.048
REMARK  10 active torsions:
REMARK  status: ('A' for Active; 'I' for Inactive)
REMARK   1   A    between atoms:  C27_1   and   C6_8  
REMARK   2   A    between atoms:  C6_8    and   C5_9  
REMARK   3   A    between atoms:  C5_9    and   C3_12 
REMARK   4   A    between atoms:  C6_8    and   N7_14 
REMARK   5   A    between atoms:  C8_15   and  C10_17 
REMARK   6   A    between atoms: C10_17   and  O11_18 
REMARK   7   A    between atoms: O11_18   and  C12_19 
REMARK   8   A    between atoms: C13_20   and  C14_25 
REMARK   9   A    between atoms: C14_25   and  N15_26 
REMARK   10  A    between atoms: C24_24   and  O25_32 
ROOT
ATOM      1 C27  MOL A   1       7.295 -16.942 -10.046  1.00  0.00    -0.024 A 
ATOM      2 C28  MOL A   1       7.776 -17.871 -10.987  1.00  0.00    -0.057 A 
ATOM      3 C29  MOL A   1       7.429 -17.755 -12.337  1.00  0.00    -0.061 A 
ATOM      4 C30  MOL A   1       6.600 -16.713 -12.761  1.00  0.00    -0.048 A 
ATOM      5 C31  MOL A   1       6.117 -15.781 -11.837  1.00  0.00     0.018 A 
ATOM      6 Br32 MOL A   1       4.999 -14.342 -12.421  1.00  0.00    -0.051 Br
ATOM      7 C33  MOL A   1       6.457 -15.896 -10.485  1.00  0.00    -0.043 A 
ENDROOT
BRANCH   1   8
ATOM      8  C6  MOL A   1       7.615 -17.117  -8.578  1.00  0.00     0.063 C 
BRANCH   8   9
ATOM      9  C5  MOL A   1       6.435 -16.629  -7.719  1.00  0.00     0.051 C 
BRANCH   9  12
ATOM     10  C1  MOL A   1       4.741 -20.137  -7.692  1.00  0.00     0.006 C 
ATOM     11  N2  MOL A   1       5.710 -19.066  -7.876  1.00  0.00    -0.359 N 
ATOM     12  C3  MOL A   1       5.410 -17.710  -7.527  1.00  0.00     0.222 C 
ATOM     13  O4  MOL A   1       4.280 -17.414  -7.051  1.00  0.00    -0.275 OA
ENDBRANCH   9  12
ENDBRANCH   8   9
BRANCH   8  14
ATOM     14  N7  MOL A   1       8.840 -16.386  -8.234  1.00  0.00    -0.346 N 
ATOM     15  C8  MOL A   1      10.049 -17.046  -7.853  1.00  0.00     0.258 C 
ATOM     16  O9  MOL A   1      10.093 -18.304  -7.790  1.00  0.00    -0.271 OA
BRANCH  15  17
ATOM     17 C10  MOL A   1      11.280 -16.251  -7.537  1.00  0.00     0.167 C 
BRANCH  17  18
ATOM     18 O11  MOL A   1      12.318 -17.106  -7.064  1.00  0.00    -0.480 OA
BRANCH  18  19
ATOM     19 C12  MOL A   1      13.636 -16.993  -7.516  1.00  0.00     0.166 A 
ATOM     20 C13  MOL A   1      14.267 -18.055  -8.203  1.00  0.00     0.012 A 
ATOM     21 C21  MOL A   1      15.564 -17.869  -8.709  1.00  0.00    -0.054 A 
ATOM     22 C22  MOL A   1      16.242 -16.669  -8.495  1.00  0.00    -0.058 A 
ATOM     23 C23  MOL A   1      15.636 -15.640  -7.773  1.00  0.00    -0.016 A 
ATOM     24 C24  MOL A   1      14.330 -15.796  -7.274  1.00  0.00     0.161 A 
BRANCH  20  25
ATOM     25 C14  MOL A   1      13.584 -19.389  -8.408  1.00  0.00     0.028 C 
BRANCH  25  26
ATOM     26 N15  MOL A   1      13.745 -20.240  -7.211  1.00  0.00    -0.287 NA
ATOM     27 C16  MOL A   1      13.974 -21.649  -7.575  1.00  0.00     0.064 C 
ATOM     28 C17  MOL A   1      12.654 -22.094  -6.975  1.00  0.00     0.272 C 
ATOM     29 F18  MOL A   1      12.795 -22.909  -5.865  1.00  0.00    -0.204 F 
ATOM     30 F19  MOL A   1      11.749 -22.570  -7.909  1.00  0.00    -0.204 F 
ATOM     31 C20  MOL A   1      12.450 -20.632  -6.629  1.00  0.00     0.064 C 
ENDBRANCH  25  26
ENDBRANCH  20  25
BRANCH  24  32
ATOM     32 O25  MOL A   1      13.685 -14.787  -6.544  1.00  0.00    -0.493 OA
ATOM     33 C26  MOL A   1      13.736 -14.662  -5.126  1.00  0.00     0.078 C 
ENDBRANCH  24  32
ENDBRANCH  18  19
ENDBRANCH  17  18
ENDBRANCH  15  17
ENDBRANCH   8  14
ENDBRANCH   1   8
TORSDOF 10
ENDMDL
MODEL 40
REMARK VINA RESULT:    -8.003      4.533      9.407
REMARK INTER + INTRA:         -13.729
REMARK INTER:                 -12.277
REMARK INTRA:                  -1.452
REMARK UNBOUND:                -1.048
REMARK  10 active torsions:
REMARK  status: ('A' for Active; 'I' for Inactive)
REMARK   1   A    between atoms:  C27_1   and   C6_8  
REMARK   2   A    between atoms:  C6_8    and   C5_9  
REMARK   3   A    between atoms:  C5_9    and   C3_12 
REMARK   4   A    between atoms:  C6_8    and   N7_14 
REMARK   5   A    between atoms:  C8_15   and  C10_17 
REMARK   6   A    between atoms: C10_17   and  O11_18 
REMARK   7   A    between atoms: O11_18   and  C12_19 
REMARK   8   A    between atoms: C13_20   and  C14_25 
REMARK   9   A    between atoms: C14_25   and  N15_26 
REMARK   10  A    between atoms: C24_24   and  O25_32 
ROOT
ATOM      1 C27  MOL A   1       6.676 -17.662  -8.749  1.00  0.00    -0.024 A 
ATOM      2 C28  MOL A   1       5.845 -16.829  -7.978  1.00  0.00    -0.057 A 
ATOM      3 C29  MOL A   1       4.815 -17.377  -7.205  1.00  0.00    -0.061 A 
ATOM      4 C30  MOL A   1       4.604 -18.759  -7.196  1.00  0.00    -0.048 A 
ATOM      5 C31  MOL A   1       5.426 -19.598  -7.956  1.00  0.00     0.018 A 
ATOM      6 Br32 MOL A   1       5.151 -21.491  -7.925  1.00  0.00    -0.051 Br
ATOM      7 C33  MOL A   1       6.453 -19.054  -8.734  1.00  0.00    -0.043 A 
ENDROOT
BRANCH   1   8
ATOM      8  C6  MOL A   1       7.740 -17.056  -9.638  1.00  0.00     0.063 C 
BRANCH   8   9
ATOM      9  C5  MOL A   1       7.532 -17.509 -11.094  1.00  0.00     0.051 C 
BRANCH   9  12
ATOM     10  C1  MOL A   1       5.394 -14.368 -11.952  1.00  0.00     0.006 C 
ATOM     11  N2  MOL A   1       6.197 -15.345 -11.230  1.00  0.00    -0.359 N 
ATOM     12  C3  MOL A   1       6.698 -16.527 -11.864  1.00  0.00     0.222 C 
ATOM     13  O4  MOL A   1       6.443 -16.749 -13.079  1.00  0.00    -0.275 OA
ENDBRANCH   9  12
ENDBRANCH   8   9
BRANCH   8  14
ATOM     14  N7  MOL A   1       9.075 -17.436  -9.164  1.00  0.00    -0.346 N 
ATOM     15  C8  MOL A   1       9.747 -16.736  -8.115  1.00  0.00     0.258 C 
ATOM     16  O9  MOL A   1       9.202 -15.743  -7.563  1.00  0.00    -0.271 OA
BRANCH  15  17
ATOM     17 C10  MOL A   1      11.101 -17.183  -7.651  1.00  0.00     0.167 C 
BRANCH  17  18
ATOM     18 O11  MOL A   1      11.773 -17.896  -8.686  1.00  0.00    -0.480 OA
BRANCH  18  19
ATOM     19 C12  MOL A   1      12.467 -19.083  -8.438  1.00  0.00     0.166 A 
ATOM     20 C13  MOL A   1      13.878 -19.102  -8.358  1.00  0.00     0.012 A 
ATOM     21 C21  MOL A   1      14.530 -20.302  -8.029  1.00  0.00    -0.054 A 
ATOM     22 C22  MOL A   1      13.799 -21.474  -7.830  1.00  0.00    -0.058 A 
ATOM     23 C23  MOL A   1      12.410 -21.464  -7.959  1.00  0.00    -0.016 A 
ATOM     24 C24  MOL A   1      11.734 -20.269  -8.269  1.00  0.00     0.161 A 
BRANCH  20  25
ATOM     25 C14  MOL A   1      14.708 -17.864  -8.620  1.00  0.00     0.028 C 
BRANCH  25  26
ATOM     26 N15  MOL A   1      15.464 -17.485  -7.409  1.00  0.00    -0.287 NA
ATOM     27 C16  MOL A   1      14.720 -16.514  -6.588  1.00  0.00     0.064 C 
ATOM     28 C17  MOL A   1      15.735 -15.416  -6.837  1.00  0.00     0.272 C 
ATOM     29 F18  MOL A   1      16.434 -15.039  -5.703  1.00  0.00    -0.204 F 
ATOM     30 F19  MOL A   1      15.237 -14.351  -7.569  1.00  0.00    -0.204 F 
ATOM     31 C20  MOL A   1      16.465 -16.440  -7.684  1.00  0.00     0.064 C 
ENDBRANCH  25  26
ENDBRANCH  20  25
BRANCH  24  32
ATOM     32 O25  MOL A   1      10.339 -20.217  -8.408  1.00  0.00    -0.493 OA
ATOM     33 C26  MOL A   1       9.414 -20.607  -7.399  1.00  0.00     0.078 C 
ENDBRANCH  24  32
ENDBRANCH  18  19
ENDBRANCH  17  18
ENDBRANCH  15  17
ENDBRANCH   8  14
ENDBRANCH   1   8
TORSDOF 10
ENDMDL
MODEL 41
REMARK VINA RESULT:    -8.000      4.384      9.605
REMARK INTER + INTRA:         -13.725
REMARK INTER:                 -12.535
REMARK INTRA:                  -1.191
REMARK UNBOUND:                -1.048
REMARK  10 active torsions:
REMARK  status: ('A' for Active; 'I' for Inactive)
REMARK   1   A    between atoms:  C27_1   and   C6_8  
REMARK   2   A    between atoms:  C6_8    and   C5_9  
REMARK   3   A    between atoms:  C5_9    and   C3_12 
REMARK   4   A    between atoms:  C6_8    and   N7_14 
REMARK   5   A    between atoms:  C8_15   and  C10_17 
REMARK   6   A    between atoms: C10_17   and  O11_18 
REMARK   7   A    between atoms: O11_18   and  C12_19 
REMARK   8   A    between atoms: C13_20   and  C14_25 
REMARK   9   A    between atoms: C14_25   and  N15_26 
REMARK   10  A    between atoms: C24_24   and  O25_32 
ROOT
ATOM      1 C27  MOL A   1       7.020 -19.440  -9.745  1.00  0.00    -0.024 A 
ATOM      2 C28  MOL A   1       7.052 -20.287 -10.867  1.00  0.00    -0.057 A 
ATOM      3 C29  MOL A   1       6.328 -21.485 -10.870  1.00  0.00    -0.061 A 
ATOM      4 C30  MOL A   1       5.567 -21.847  -9.755  1.00  0.00    -0.048 A 
ATOM      5 C31  MOL A   1       5.524 -21.011  -8.633  1.00  0.00     0.018 A 
ATOM      6 Br32 MOL A   1       4.465 -21.497  -7.116  1.00  0.00    -0.051 Br
ATOM      7 C33  MOL A   1       6.251 -19.816  -8.625  1.00  0.00    -0.043 A 
ENDROOT
BRANCH   1   8
ATOM      8  C6  MOL A   1       7.863 -18.183  -9.721  1.00  0.00     0.063 C 
BRANCH   8   9
ATOM      9  C5  MOL A   1       7.622 -17.362 -11.001  1.00  0.00     0.051 C 
BRANCH   9  12
ATOM     10  C1  MOL A   1       4.982 -14.596 -11.748  1.00  0.00     0.006 C 
ATOM     11  N2  MOL A   1       6.027 -15.597 -11.911  1.00  0.00    -0.359 N 
ATOM     12  C3  MOL A   1       6.551 -16.329 -10.798  1.00  0.00     0.222 C 
ATOM     13  O4  MOL A   1       6.112 -16.112  -9.636  1.00  0.00    -0.275 OA
ENDBRANCH   9  12
ENDBRANCH   8   9
BRANCH   8  14
ATOM     14  N7  MOL A   1       9.283 -18.526  -9.588  1.00  0.00    -0.346 N 
ATOM     15  C8  MOL A   1      10.157 -17.846  -8.685  1.00  0.00     0.258 C 
ATOM     16  O9  MOL A   1       9.724 -16.904  -7.969  1.00  0.00    -0.271 OA
BRANCH  15  17
ATOM     17 C10  MOL A   1      11.595 -18.254  -8.569  1.00  0.00     0.167 C 
BRANCH  17  18
ATOM     18 O11  MOL A   1      11.835 -18.887  -7.314  1.00  0.00    -0.480 OA
BRANCH  18  19
ATOM     19 C12  MOL A   1      13.037 -19.539  -7.030  1.00  0.00     0.166 A 
ATOM     20 C13  MOL A   1      14.159 -18.828  -6.547  1.00  0.00     0.012 A 
ATOM     21 C21  MOL A   1      15.322 -19.536  -6.200  1.00  0.00    -0.054 A 
ATOM     22 C22  MOL A   1      15.389 -20.918  -6.375  1.00  0.00    -0.058 A 
ATOM     23 C23  MOL A   1      14.298 -21.611  -6.900  1.00  0.00    -0.016 A 
ATOM     24 C24  MOL A   1      13.115 -20.927  -7.236  1.00  0.00     0.161 A 
BRANCH  20  25
ATOM     25 C14  MOL A   1      14.143 -17.323  -6.394  1.00  0.00     0.028 C 
BRANCH  25  26
ATOM     26 N15  MOL A   1      15.440 -16.749  -6.805  1.00  0.00    -0.287 NA
ATOM     27 C16  MOL A   1      15.559 -15.336  -6.404  1.00  0.00     0.064 C 
ATOM     28 C17  MOL A   1      15.571 -14.853  -7.840  1.00  0.00     0.272 C 
ATOM     29 F18  MOL A   1      16.776 -14.294  -8.229  1.00  0.00    -0.204 F 
ATOM     30 F19  MOL A   1      14.464 -14.094  -8.183  1.00  0.00    -0.204 F 
ATOM     31 C20  MOL A   1      15.436 -16.317  -8.213  1.00  0.00     0.064 C 
ENDBRANCH  25  26
ENDBRANCH  20  25
BRANCH  24  32
ATOM     32 O25  MOL A   1      11.997 -21.586  -7.766  1.00  0.00    -0.493 OA
ATOM     33 C26  MOL A   1      11.981 -22.954  -8.160  1.00  0.00     0.078 C 
ENDBRANCH  24  32
ENDBRANCH  18  19
ENDBRANCH  17  18
ENDBRANCH  15  17
ENDBRANCH   8  14
ENDBRANCH   1   8
TORSDOF 10
ENDMDL
MODEL 42
REMARK VINA RESULT:    -7.995      1.977      3.551
REMARK INTER + INTRA:         -13.717
REMARK INTER:                 -14.040
REMARK INTRA:                   0.323
REMARK UNBOUND:                -1.048
REMARK  10 active torsions:
REMARK  status: ('A' for Active; 'I' for Inactive)
REMARK   1   A    between atoms:  C27_1   and   C6_8  
REMARK   2   A    between atoms:  C6_8    and   C5_9  
REMARK   3   A    between atoms:  C5_9    and   C3_12 
REMARK   4   A    between atoms:  C6_8    and   N7_14 
REMARK   5   A    between atoms:  C8_15   and  C10_17 
REMARK   6   A    between atoms: C10_17   and  O11_18 
REMARK   7   A    between atoms: O11_18   and  C12_19 
REMARK   8   A    between atoms: C13_20   and  C14_25 
REMARK   9   A    between atoms: C14_25   and  N15_26 
REMARK   10  A    between atoms: C24_24   and  O25_32 
ROOT
ATOM      1 C27  MOL A   1       8.741 -17.687  -9.014  1.00  0.00    -0.024 A 
ATOM      2 C28  MOL A   1       8.779 -16.678  -8.035  1.00  0.00    -0.057 A 
ATOM      3 C29  MOL A   1       9.993 -16.306  -7.448  1.00  0.00    -0.061 A 
ATOM      4 C30  MOL A   1      11.180 -16.937  -7.831  1.00  0.00    -0.048 A 
ATOM      5 C31  MOL A   1      11.157 -17.941  -8.806  1.00  0.00     0.018 A 
ATOM      6 Br32 MOL A   1      12.785 -18.789  -9.346  1.00  0.00    -0.051 Br
ATOM      7 C33  MOL A   1       9.944 -18.319  -9.392  1.00  0.00    -0.043 A 
ENDROOT
BRANCH   1   8
ATOM      8  C6  MOL A   1       7.415 -18.134  -9.591  1.00  0.00     0.063 C 
BRANCH   8   9
ATOM      9  C5  MOL A   1       7.650 -19.015 -10.832  1.00  0.00     0.051 C 
BRANCH   9  12
ATOM     10  C1  MOL A   1       5.207 -21.769  -9.560  1.00  0.00     0.006 C 
ATOM     11  N2  MOL A   1       5.974 -20.536  -9.665  1.00  0.00    -0.359 N 
ATOM     12  C3  MOL A   1       6.881 -20.302 -10.747  1.00  0.00     0.222 C 
ATOM     13  O4  MOL A   1       7.039 -21.177 -11.641  1.00  0.00    -0.275 OA
ENDBRANCH   9  12
ENDBRANCH   8   9
BRANCH   8  14
ATOM     14  N7  MOL A   1       6.592 -16.969  -9.933  1.00  0.00    -0.346 N 
ATOM     15  C8  MOL A   1       6.424 -16.514 -11.277  1.00  0.00     0.258 C 
ATOM     16  O9  MOL A   1       7.001 -17.109 -12.226  1.00  0.00    -0.271 OA
BRANCH  15  17
ATOM     17 C10  MOL A   1       5.549 -15.333 -11.574  1.00  0.00     0.167 C 
BRANCH  17  18
ATOM     18 O11  MOL A   1       5.210 -14.648 -10.371  1.00  0.00    -0.480 OA
BRANCH  18  19
ATOM     19 C12  MOL A   1       3.885 -14.495  -9.953  1.00  0.00     0.166 A 
ATOM     20 C13  MOL A   1       2.927 -13.863 -10.778  1.00  0.00     0.012 A 
ATOM     21 C21  MOL A   1       1.590 -13.802 -10.352  1.00  0.00    -0.054 A 
ATOM     22 C22  MOL A   1       1.218 -14.314  -9.109  1.00  0.00    -0.058 A 
ATOM     23 C23  MOL A   1       2.175 -14.892  -8.275  1.00  0.00    -0.016 A 
ATOM     24 C24  MOL A   1       3.517 -14.983  -8.688  1.00  0.00     0.161 A 
BRANCH  20  25
ATOM     25 C14  MOL A   1       3.302 -13.250 -12.109  1.00  0.00     0.028 C 
BRANCH  25  26
ATOM     26 N15  MOL A   1       3.800 -11.872 -11.919  1.00  0.00    -0.287 NA
ATOM     27 C16  MOL A   1       2.986 -11.131 -10.941  1.00  0.00     0.064 C 
ATOM     28 C17  MOL A   1       2.477 -10.161 -11.989  1.00  0.00     0.272 C 
ATOM     29 F18  MOL A   1       2.921  -8.863 -11.808  1.00  0.00    -0.204 F 
ATOM     30 F19  MOL A   1       1.115 -10.261 -12.226  1.00  0.00    -0.204 F 
ATOM     31 C20  MOL A   1       3.318 -10.957 -12.968  1.00  0.00     0.064 C 
ENDBRANCH  25  26
ENDBRANCH  20  25
BRANCH  24  32
ATOM     32 O25  MOL A   1       4.509 -15.555  -7.879  1.00  0.00    -0.493 OA
ATOM     33 C26  MOL A   1       4.439 -15.646  -6.460  1.00  0.00     0.078 C 
ENDBRANCH  24  32
ENDBRANCH  18  19
ENDBRANCH  17  18
ENDBRANCH  15  17
ENDBRANCH   8  14
ENDBRANCH   1   8
TORSDOF 10
ENDMDL
MODEL 43
REMARK VINA RESULT:    -7.994      4.994      9.744
REMARK INTER + INTRA:         -13.716
REMARK INTER:                 -12.990
REMARK INTRA:                  -0.725
REMARK UNBOUND:                -1.048
REMARK  10 active torsions:
REMARK  status: ('A' for Active; 'I' for Inactive)
REMARK   1   A    between atoms:  C27_1   and   C6_8  
REMARK   2   A    between atoms:  C6_8    and   C5_9  
REMARK   3   A    between atoms:  C5_9    and   C3_12 
REMARK   4   A    between atoms:  C6_8    and   N7_14 
REMARK   5   A    between atoms:  C8_15   and  C10_17 
REMARK   6   A    between atoms: C10_17   and  O11_18 
REMARK   7   A    between atoms: O11_18   and  C12_19 
REMARK   8   A    between atoms: C13_20   and  C14_25 
REMARK   9   A    between atoms: C14_25   and  N15_26 
REMARK   10  A    between atoms: C24_24   and  O25_32 
ROOT
ATOM      1 C27  MOL A   1       6.665 -17.751  -8.650  1.00  0.00    -0.024 A 
ATOM      2 C28  MOL A   1       5.912 -16.844  -7.883  1.00  0.00    -0.057 A 
ATOM      3 C29  MOL A   1       4.820 -17.290  -7.130  1.00  0.00    -0.061 A 
ATOM      4 C30  MOL A   1       4.470 -18.643  -7.137  1.00  0.00    -0.048 A 
ATOM      5 C31  MOL A   1       5.213 -19.556  -7.893  1.00  0.00     0.018 A 
ATOM      6 Br32 MOL A   1       4.746 -21.411  -7.884  1.00  0.00    -0.051 Br
ATOM      7 C33  MOL A   1       6.302 -19.113  -8.651  1.00  0.00    -0.043 A 
ENDROOT
BRANCH   1   8
ATOM      8  C6  MOL A   1       7.799 -17.250  -9.518  1.00  0.00     0.063 C 
BRANCH   8   9
ATOM      9  C5  MOL A   1       7.597 -17.715 -10.971  1.00  0.00     0.051 C 
BRANCH   9  12
ATOM     10  C1  MOL A   1       5.524 -14.547 -11.885  1.00  0.00     0.006 C 
ATOM     11  N2  MOL A   1       6.272 -15.546 -11.137  1.00  0.00    -0.359 N 
ATOM     12  C3  MOL A   1       6.821 -16.708 -11.769  1.00  0.00     0.222 C 
ATOM     13  O4  MOL A   1       6.658 -16.890 -13.006  1.00  0.00    -0.275 OA
ENDBRANCH   9  12
ENDBRANCH   8   9
BRANCH   8  14
ATOM     14  N7  MOL A   1       9.086 -17.725  -8.997  1.00  0.00    -0.346 N 
ATOM     15  C8  MOL A   1       9.813 -17.024  -7.987  1.00  0.00     0.258 C 
ATOM     16  O9  MOL A   1       9.363 -15.948  -7.511  1.00  0.00    -0.271 OA
BRANCH  15  17
ATOM     17 C10  MOL A   1      11.112 -17.568  -7.471  1.00  0.00     0.167 C 
BRANCH  17  18
ATOM     18 O11  MOL A   1      12.207 -16.808  -7.977  1.00  0.00    -0.480 OA
BRANCH  18  19
ATOM     19 C12  MOL A   1      13.429 -17.399  -8.310  1.00  0.00     0.166 A 
ATOM     20 C13  MOL A   1      14.647 -16.899  -7.795  1.00  0.00     0.012 A 
ATOM     21 C21  MOL A   1      15.844 -17.572  -8.092  1.00  0.00    -0.054 A 
ATOM     22 C22  MOL A   1      15.839 -18.692  -8.924  1.00  0.00    -0.058 A 
ATOM     23 C23  MOL A   1      14.641 -19.154  -9.471  1.00  0.00    -0.016 A 
ATOM     24 C24  MOL A   1      13.427 -18.508  -9.172  1.00  0.00     0.161 A 
BRANCH  20  25
ATOM     25 C14  MOL A   1      14.698 -15.657  -6.934  1.00  0.00     0.028 C 
BRANCH  25  26
ATOM     26 N15  MOL A   1      14.142 -15.935  -5.594  1.00  0.00    -0.287 NA
ATOM     27 C16  MOL A   1      14.057 -14.712  -4.778  1.00  0.00     0.064 C 
ATOM     28 C17  MOL A   1      15.095 -15.210  -3.791  1.00  0.00     0.272 C 
ATOM     29 F18  MOL A   1      14.587 -15.454  -2.527  1.00  0.00    -0.204 F 
ATOM     30 F19  MOL A   1      16.266 -14.471  -3.793  1.00  0.00    -0.204 F 
ATOM     31 C20  MOL A   1      15.163 -16.448  -4.664  1.00  0.00     0.064 C 
ENDBRANCH  25  26
ENDBRANCH  20  25
BRANCH  24  32
ATOM     32 O25  MOL A   1      12.203 -18.940  -9.702  1.00  0.00    -0.493 OA
ATOM     33 C26  MOL A   1      11.721 -18.599 -10.997  1.00  0.00     0.078 C 
ENDBRANCH  24  32
ENDBRANCH  18  19
ENDBRANCH  17  18
ENDBRANCH  15  17
ENDBRANCH   8  14
ENDBRANCH   1   8
TORSDOF 10
ENDMDL
MODEL 44
REMARK VINA RESULT:    -7.976      6.449     10.006
REMARK INTER + INTRA:         -13.688
REMARK INTER:                 -12.179
REMARK INTRA:                  -1.509
REMARK UNBOUND:                -1.048
REMARK  10 active torsions:
REMARK  status: ('A' for Active; 'I' for Inactive)
REMARK   1   A    between atoms:  C27_1   and   C6_8  
REMARK   2   A    between atoms:  C6_8    and   C5_9  
REMARK   3   A    between atoms:  C5_9    and   C3_12 
REMARK   4   A    between atoms:  C6_8    and   N7_14 
REMARK   5   A    between atoms:  C8_15   and  C10_17 
REMARK   6   A    between atoms: C10_17   and  O11_18 
REMARK   7   A    between atoms: O11_18   and  C12_19 
REMARK   8   A    between atoms: C13_20   and  C14_25 
REMARK   9   A    between atoms: C14_25   and  N15_26 
REMARK   10  A    between atoms: C24_24   and  O25_32 
ROOT
ATOM      1 C27  MOL A   1       6.993 -20.376  -8.761  1.00  0.00    -0.024 A 
ATOM      2 C28  MOL A   1       6.022 -21.333  -8.415  1.00  0.00    -0.057 A 
ATOM      3 C29  MOL A   1       4.849 -20.947  -7.758  1.00  0.00    -0.061 A 
ATOM      4 C30  MOL A   1       4.634 -19.603  -7.440  1.00  0.00    -0.048 A 
ATOM      5 C31  MOL A   1       5.590 -18.639  -7.782  1.00  0.00     0.018 A 
ATOM      6 Br32 MOL A   1       5.284 -16.797  -7.366  1.00  0.00    -0.051 Br
ATOM      7 C33  MOL A   1       6.766 -19.023  -8.434  1.00  0.00    -0.043 A 
ENDROOT
BRANCH   1   8
ATOM      8  C6  MOL A   1       8.290 -20.811  -9.406  1.00  0.00     0.063 C 
BRANCH   8   9
ATOM      9  C5  MOL A   1       8.436 -22.341  -9.316  1.00  0.00     0.051 C 
BRANCH   9  12
ATOM     10  C1  MOL A   1      10.845 -24.658 -11.317  1.00  0.00     0.006 C 
ATOM     11  N2  MOL A   1      10.011 -24.107 -10.258  1.00  0.00    -0.359 N 
ATOM     12  C3  MOL A   1       9.296 -22.878 -10.424  1.00  0.00     0.222 C 
ATOM     13  O4  MOL A   1       9.381 -22.238 -11.507  1.00  0.00    -0.275 OA
ENDBRANCH   9  12
ENDBRANCH   8   9
BRANCH   8  14
ATOM     14  N7  MOL A   1       9.427 -20.146  -8.761  1.00  0.00    -0.346 N 
ATOM     15  C8  MOL A   1      10.315 -19.279  -9.471  1.00  0.00     0.258 C 
ATOM     16  O9  MOL A   1      10.146 -19.066 -10.701  1.00  0.00    -0.271 OA
BRANCH  15  17
ATOM     17 C10  MOL A   1      11.446 -18.603  -8.757  1.00  0.00     0.167 C 
BRANCH  17  18
ATOM     18 O11  MOL A   1      12.615 -19.419  -8.788  1.00  0.00    -0.480 OA
BRANCH  18  19
ATOM     19 C12  MOL A   1      13.285 -19.800  -7.622  1.00  0.00     0.166 A 
ATOM     20 C13  MOL A   1      14.214 -18.936  -6.998  1.00  0.00     0.012 A 
ATOM     21 C21  MOL A   1      14.805 -19.327  -5.784  1.00  0.00    -0.054 A 
ATOM     22 C22  MOL A   1      14.516 -20.572  -5.225  1.00  0.00    -0.058 A 
ATOM     23 C23  MOL A   1      13.637 -21.443  -5.869  1.00  0.00    -0.016 A 
ATOM     24 C24  MOL A   1      13.018 -21.065  -7.075  1.00  0.00     0.161 A 
BRANCH  20  25
ATOM     25 C14  MOL A   1      14.592 -17.602  -7.602  1.00  0.00     0.028 C 
BRANCH  25  26
ATOM     26 N15  MOL A   1      15.501 -16.866  -6.699  1.00  0.00    -0.287 NA
ATOM     27 C16  MOL A   1      15.340 -15.409  -6.839  1.00  0.00     0.064 C 
ATOM     28 C17  MOL A   1      16.735 -15.236  -7.406  1.00  0.00     0.272 C 
ATOM     29 F18  MOL A   1      17.589 -14.529  -6.576  1.00  0.00    -0.204 F 
ATOM     30 F19  MOL A   1      16.752 -14.808  -8.724  1.00  0.00    -0.204 F 
ATOM     31 C20  MOL A   1      16.858 -16.740  -7.259  1.00  0.00     0.064 C 
ENDBRANCH  25  26
ENDBRANCH  20  25
BRANCH  24  32
ATOM     32 O25  MOL A   1      12.129 -21.912  -7.753  1.00  0.00    -0.493 OA
ATOM     33 C26  MOL A   1      12.187 -23.334  -7.720  1.00  0.00     0.078 C 
ENDBRANCH  24  32
ENDBRANCH  18  19
ENDBRANCH  17  18
ENDBRANCH  15  17
ENDBRANCH   8  14
ENDBRANCH   1   8
TORSDOF 10
ENDMDL
MODEL 45
REMARK VINA RESULT:    -7.973      4.841      7.975
REMARK INTER + INTRA:         -13.682
REMARK INTER:                 -12.032
REMARK INTRA:                  -1.650
REMARK UNBOUND:                -1.048
REMARK  10 active torsions:
REMARK  status: ('A' for Active; 'I' for Inactive)
REMARK   1   A    between atoms:  C27_1   and   C6_8  
REMARK   2   A    between atoms:  C6_8    and   C5_9  
REMARK   3   A    between atoms:  C5_9    and   C3_12 
REMARK   4   A    between atoms:  C6_8    and   N7_14 
REMARK   5   A    between atoms:  C8_15   and  C10_17 
REMARK   6   A    between atoms: C10_17   and  O11_18 
REMARK   7   A    between atoms: O11_18   and  C12_19 
REMARK   8   A    between atoms: C13_20   and  C14_25 
REMARK   9   A    between atoms: C14_25   and  N15_26 
REMARK   10  A    between atoms: C24_24   and  O25_32 
ROOT
ATOM      1 C27  MOL A   1       5.659 -19.024  -7.972  1.00  0.00    -0.024 A 
ATOM      2 C28  MOL A   1       4.547 -18.379  -7.400  1.00  0.00    -0.057 A 
ATOM      3 C29  MOL A   1       4.624 -17.032  -7.030  1.00  0.00    -0.061 A 
ATOM      4 C30  MOL A   1       5.809 -16.317  -7.227  1.00  0.00    -0.048 A 
ATOM      5 C31  MOL A   1       6.921 -16.946  -7.798  1.00  0.00     0.018 A 
ATOM      6 Br32 MOL A   1       8.535 -15.961  -8.087  1.00  0.00    -0.051 Br
ATOM      7 C33  MOL A   1       6.849 -18.294  -8.164  1.00  0.00    -0.043 A 
ENDROOT
BRANCH   1   8
ATOM      8  C6  MOL A   1       5.591 -20.500  -8.303  1.00  0.00     0.063 C 
BRANCH   8   9
ATOM      9  C5  MOL A   1       4.662 -21.220  -7.308  1.00  0.00     0.051 C 
BRANCH   9  12
ATOM     10  C1  MOL A   1       2.203 -22.309 -10.126  1.00  0.00     0.006 C 
ATOM     11  N2  MOL A   1       3.321 -21.702  -9.420  1.00  0.00    -0.359 N 
ATOM     12  C3  MOL A   1       3.492 -21.851  -8.006  1.00  0.00     0.222 C 
ATOM     13  O4  MOL A   1       2.658 -22.518  -7.336  1.00  0.00    -0.275 OA
ENDBRANCH   9  12
ENDBRANCH   8   9
BRANCH   8  14
ATOM     14  N7  MOL A   1       6.933 -21.089  -8.275  1.00  0.00    -0.346 N 
ATOM     15  C8  MOL A   1       7.432 -21.916  -9.329  1.00  0.00     0.258 C 
ATOM     16  O9  MOL A   1       6.711 -22.174 -10.329  1.00  0.00    -0.271 OA
BRANCH  15  17
ATOM     17 C10  MOL A   1       8.823 -22.472  -9.263  1.00  0.00     0.167 C 
BRANCH  17  18
ATOM     18 O11  MOL A   1       9.713 -21.686 -10.052  1.00  0.00    -0.480 OA
BRANCH  18  19
ATOM     19 C12  MOL A   1      10.392 -20.583  -9.527  1.00  0.00     0.166 A 
ATOM     20 C13  MOL A   1      10.230 -19.293 -10.081  1.00  0.00     0.012 A 
ATOM     21 C21  MOL A   1      10.870 -18.200  -9.473  1.00  0.00    -0.054 A 
ATOM     22 C22  MOL A   1      11.695 -18.390  -8.364  1.00  0.00    -0.058 A 
ATOM     23 C23  MOL A   1      11.894 -19.672  -7.849  1.00  0.00    -0.016 A 
ATOM     24 C24  MOL A   1      11.247 -20.779  -8.430  1.00  0.00     0.161 A 
BRANCH  20  25
ATOM     25 C14  MOL A   1       9.387 -19.055 -11.314  1.00  0.00     0.028 C 
BRANCH  25  26
ATOM     26 N15  MOL A   1       8.092 -18.449 -10.944  1.00  0.00    -0.287 NA
ATOM     27 C16  MOL A   1       7.047 -18.755 -11.936  1.00  0.00     0.064 C 
ATOM     28 C17  MOL A   1       6.922 -17.306 -12.361  1.00  0.00     0.272 C 
ATOM     29 F18  MOL A   1       5.704 -16.735 -12.037  1.00  0.00    -0.204 F 
ATOM     30 F19  MOL A   1       7.323 -17.071 -13.666  1.00  0.00    -0.204 F 
ATOM     31 C20  MOL A   1       8.008 -17.032 -11.339  1.00  0.00     0.064 C 
ENDBRANCH  25  26
ENDBRANCH  20  25
BRANCH  24  32
ATOM     32 O25  MOL A   1      11.420 -22.083  -7.943  1.00  0.00    -0.493 OA
ATOM     33 C26  MOL A   1      12.302 -22.436  -6.883  1.00  0.00     0.078 C 
ENDBRANCH  24  32
ENDBRANCH  18  19
ENDBRANCH  17  18
ENDBRANCH  15  17
ENDBRANCH   8  14
ENDBRANCH   1   8
TORSDOF 10
ENDMDL
MODEL 46
REMARK VINA RESULT:    -7.968      4.758      8.046
REMARK INTER + INTRA:         -13.675
REMARK INTER:                 -13.582
REMARK INTRA:                  -0.093
REMARK UNBOUND:                -1.048
REMARK  10 active torsions:
REMARK  status: ('A' for Active; 'I' for Inactive)
REMARK   1   A    between atoms:  C27_1   and   C6_8  
REMARK   2   A    between atoms:  C6_8    and   C5_9  
REMARK   3   A    between atoms:  C5_9    and   C3_12 
REMARK   4   A    between atoms:  C6_8    and   N7_14 
REMARK   5   A    between atoms:  C8_15   and  C10_17 
REMARK   6   A    between atoms: C10_17   and  O11_18 
REMARK   7   A    between atoms: O11_18   and  C12_19 
REMARK   8   A    between atoms: C13_20   and  C14_25 
REMARK   9   A    between atoms: C14_25   and  N15_26 
REMARK   10  A    between atoms: C24_24   and  O25_32 
ROOT
ATOM      1 C27  MOL A   1       8.720 -17.722  -8.800  1.00  0.00    -0.024 A 
ATOM      2 C28  MOL A   1       9.024 -16.463  -8.251  1.00  0.00    -0.057 A 
ATOM      3 C29  MOL A   1      10.149 -16.301  -7.434  1.00  0.00    -0.061 A 
ATOM      4 C30  MOL A   1      10.978 -17.391  -7.157  1.00  0.00    -0.048 A 
ATOM      5 C31  MOL A   1      10.688 -18.648  -7.700  1.00  0.00     0.018 A 
ATOM      6 Br32 MOL A   1      11.836 -20.135  -7.338  1.00  0.00    -0.051 Br
ATOM      7 C33  MOL A   1       9.562 -18.816  -8.513  1.00  0.00    -0.043 A 
ENDROOT
BRANCH   1   8
ATOM      8  C6  MOL A   1       7.463 -17.906  -9.623  1.00  0.00     0.063 C 
BRANCH   8   9
ATOM      9  C5  MOL A   1       6.598 -16.634  -9.555  1.00  0.00     0.051 C 
BRANCH   9  12
ATOM     10  C1  MOL A   1       5.204 -14.369 -12.401  1.00  0.00     0.006 C 
ATOM     11  N2  MOL A   1       5.483 -14.934 -11.088  1.00  0.00    -0.359 N 
ATOM     12  C3  MOL A   1       6.321 -16.082 -10.923  1.00  0.00     0.222 C 
ATOM     13  O4  MOL A   1       6.837 -16.638 -11.931  1.00  0.00    -0.275 OA
ENDBRANCH   9  12
ENDBRANCH   8   9
BRANCH   8  14
ATOM     14  N7  MOL A   1       6.709 -19.070  -9.146  1.00  0.00    -0.346 N 
ATOM     15  C8  MOL A   1       5.775 -18.992  -8.067  1.00  0.00     0.258 C 
ATOM     16  O9  MOL A   1       5.577 -17.897  -7.476  1.00  0.00    -0.271 OA
BRANCH  15  17
ATOM     17 C10  MOL A   1       5.010 -20.207  -7.637  1.00  0.00     0.167 C 
BRANCH  17  18
ATOM     18 O11  MOL A   1       3.687 -20.178  -8.165  1.00  0.00    -0.480 OA
BRANCH  18  19
ATOM     19 C12  MOL A   1       3.140 -21.262  -8.857  1.00  0.00     0.166 A 
ATOM     20 C13  MOL A   1       3.871 -21.929  -9.867  1.00  0.00     0.012 A 
ATOM     21 C21  MOL A   1       3.314 -23.063 -10.481  1.00  0.00    -0.054 A 
ATOM     22 C22  MOL A   1       2.035 -23.500 -10.134  1.00  0.00    -0.058 A 
ATOM     23 C23  MOL A   1       1.296 -22.810  -9.173  1.00  0.00    -0.016 A 
ATOM     24 C24  MOL A   1       1.841 -21.683  -8.530  1.00  0.00     0.161 A 
BRANCH  20  25
ATOM     25 C14  MOL A   1       5.238 -21.453 -10.307  1.00  0.00     0.028 C 
BRANCH  25  26
ATOM     26 N15  MOL A   1       6.153 -22.600 -10.478  1.00  0.00    -0.287 NA
ATOM     27 C16  MOL A   1       7.296 -22.523  -9.551  1.00  0.00     0.064 C 
ATOM     28 C17  MOL A   1       8.291 -22.332 -10.679  1.00  0.00     0.272 C 
ATOM     29 F18  MOL A   1       9.166 -23.393 -10.833  1.00  0.00    -0.204 F 
ATOM     30 F19  MOL A   1       8.907 -21.091 -10.673  1.00  0.00    -0.204 F 
ATOM     31 C20  MOL A   1       7.088 -22.403 -11.599  1.00  0.00     0.064 C 
ENDBRANCH  25  26
ENDBRANCH  20  25
BRANCH  24  32
ATOM     32 O25  MOL A   1       1.130 -20.962  -7.559  1.00  0.00    -0.493 OA
ATOM     33 C26  MOL A   1      -0.237 -20.585  -7.677  1.00  0.00     0.078 C 
ENDBRANCH  24  32
ENDBRANCH  18  19
ENDBRANCH  17  18
ENDBRANCH  15  17
ENDBRANCH   8  14
ENDBRANCH   1   8
TORSDOF 10
ENDMDL
MODEL 47
REMARK VINA RESULT:    -7.967      5.120      7.435
REMARK INTER + INTRA:         -13.674
REMARK INTER:                 -14.421
REMARK INTRA:                   0.747
REMARK UNBOUND:                -1.048
REMARK  10 active torsions:
REMARK  status: ('A' for Active; 'I' for Inactive)
REMARK   1   A    between atoms:  C27_1   and   C6_8  
REMARK   2   A    between atoms:  C6_8    and   C5_9  
REMARK   3   A    between atoms:  C5_9    and   C3_12 
REMARK   4   A    between atoms:  C6_8    and   N7_14 
REMARK   5   A    between atoms:  C8_15   and  C10_17 
REMARK   6   A    between atoms: C10_17   and  O11_18 
REMARK   7   A    between atoms: O11_18   and  C12_19 
REMARK   8   A    between atoms: C13_20   and  C14_25 
REMARK   9   A    between atoms: C14_25   and  N15_26 
REMARK   10  A    between atoms: C24_24   and  O25_32 
ROOT
ATOM      1 C27  MOL A   1       7.042 -17.582 -10.068  1.00  0.00    -0.024 A 
ATOM      2 C28  MOL A   1       7.506 -18.244 -11.219  1.00  0.00    -0.057 A 
ATOM      3 C29  MOL A   1       7.309 -17.684 -12.486  1.00  0.00    -0.061 A 
ATOM      4 C30  MOL A   1       6.647 -16.460 -12.616  1.00  0.00    -0.048 A 
ATOM      5 C31  MOL A   1       6.183 -15.790 -11.479  1.00  0.00     0.018 A 
ATOM      6 Br32 MOL A   1       5.296 -14.104 -11.657  1.00  0.00    -0.051 Br
ATOM      7 C33  MOL A   1       6.374 -16.349 -10.211  1.00  0.00    -0.043 A 
ENDROOT
BRANCH   1   8
ATOM      8  C6  MOL A   1       7.195 -18.229  -8.708  1.00  0.00     0.063 C 
BRANCH   8   9
ATOM      9  C5  MOL A   1       8.249 -19.348  -8.773  1.00  0.00     0.051 C 
BRANCH   9  12
ATOM     10  C1  MOL A   1      11.406 -17.280  -7.808  1.00  0.00     0.006 C 
ATOM     11  N2  MOL A   1      10.171 -17.708  -8.449  1.00  0.00    -0.359 N 
ATOM     12  C3  MOL A   1       9.529 -18.940  -8.102  1.00  0.00     0.222 C 
ATOM     13  O4  MOL A   1      10.034 -19.691  -7.224  1.00  0.00    -0.275 OA
ENDBRANCH   9  12
ENDBRANCH   8   9
BRANCH   8  14
ATOM     14  N7  MOL A   1       5.907 -18.758  -8.249  1.00  0.00    -0.346 N 
ATOM     15  C8  MOL A   1       5.778 -20.042  -7.635  1.00  0.00     0.258 C 
ATOM     16  O9  MOL A   1       6.790 -20.775  -7.477  1.00  0.00    -0.271 OA
BRANCH  15  17
ATOM     17 C10  MOL A   1       4.440 -20.525  -7.160  1.00  0.00     0.167 C 
BRANCH  17  18
ATOM     18 O11  MOL A   1       3.452 -20.329  -8.169  1.00  0.00    -0.480 OA
BRANCH  18  19
ATOM     19 C12  MOL A   1       2.931 -21.392  -8.913  1.00  0.00     0.166 A 
ATOM     20 C13  MOL A   1       1.583 -21.794  -8.767  1.00  0.00     0.012 A 
ATOM     21 C21  MOL A   1       1.080 -22.815  -9.591  1.00  0.00    -0.054 A 
ATOM     22 C22  MOL A   1       1.911 -23.458 -10.509  1.00  0.00    -0.058 A 
ATOM     23 C23  MOL A   1       3.254 -23.094 -10.615  1.00  0.00    -0.016 A 
ATOM     24 C24  MOL A   1       3.775 -22.061  -9.814  1.00  0.00     0.161 A 
BRANCH  20  25
ATOM     25 C14  MOL A   1       0.667 -21.156  -7.747  1.00  0.00     0.028 C 
BRANCH  25  26
ATOM     26 N15  MOL A   1      -0.422 -20.420  -8.420  1.00  0.00    -0.287 NA
ATOM     27 C16  MOL A   1      -1.208 -19.621  -7.465  1.00  0.00     0.064 C 
ATOM     28 C17  MOL A   1      -2.454 -20.458  -7.676  1.00  0.00     0.272 C 
ATOM     29 F18  MOL A   1      -3.487 -19.771  -8.288  1.00  0.00    -0.204 F 
ATOM     30 F19  MOL A   1      -2.842 -21.174  -6.555  1.00  0.00    -0.204 F 
ATOM     31 C20  MOL A   1      -1.609 -21.265  -8.643  1.00  0.00     0.064 C 
ENDBRANCH  25  26
ENDBRANCH  20  25
BRANCH  24  32
ATOM     32 O25  MOL A   1       5.118 -21.665  -9.889  1.00  0.00    -0.493 OA
ATOM     33 C26  MOL A   1       6.054 -22.166 -10.838  1.00  0.00     0.078 C 
ENDBRANCH  24  32
ENDBRANCH  18  19
ENDBRANCH  17  18
ENDBRANCH  15  17
ENDBRANCH   8  14
ENDBRANCH   1   8
TORSDOF 10
ENDMDL
MODEL 48
REMARK VINA RESULT:    -7.963      4.950      7.513
REMARK INTER + INTRA:         -13.666
REMARK INTER:                 -12.103
REMARK INTRA:                  -1.563
REMARK UNBOUND:                -1.048
REMARK  10 active torsions:
REMARK  status: ('A' for Active; 'I' for Inactive)
REMARK   1   A    between atoms:  C27_1   and   C6_8  
REMARK   2   A    between atoms:  C6_8    and   C5_9  
REMARK   3   A    between atoms:  C5_9    and   C3_12 
REMARK   4   A    between atoms:  C6_8    and   N7_14 
REMARK   5   A    between atoms:  C8_15   and  C10_17 
REMARK   6   A    between atoms: C10_17   and  O11_18 
REMARK   7   A    between atoms: O11_18   and  C12_19 
REMARK   8   A    between atoms: C13_20   and  C14_25 
REMARK   9   A    between atoms: C14_25   and  N15_26 
REMARK   10  A    between atoms: C24_24   and  O25_32 
ROOT
ATOM      1 C27  MOL A   1       6.568 -21.602  -9.139  1.00  0.00    -0.024 A 
ATOM      2 C28  MOL A   1       6.499 -20.847  -7.954  1.00  0.00    -0.057 A 
ATOM      3 C29  MOL A   1       5.258 -20.521  -7.395  1.00  0.00    -0.061 A 
ATOM      4 C30  MOL A   1       4.078 -20.944  -8.012  1.00  0.00    -0.048 A 
ATOM      5 C31  MOL A   1       4.133 -21.698  -9.189  1.00  0.00     0.018 A 
ATOM      6 Br32 MOL A   1       2.517 -22.296 -10.021  1.00  0.00    -0.051 Br
ATOM      7 C33  MOL A   1       5.371 -22.022  -9.753  1.00  0.00    -0.043 A 
ENDROOT
BRANCH   1   8
ATOM      8  C6  MOL A   1       7.911 -21.889  -9.776  1.00  0.00     0.063 C 
BRANCH   8   9
ATOM      9  C5  MOL A   1       8.069 -23.401 -10.014  1.00  0.00     0.051 C 
BRANCH   9  12
ATOM     10  C1  MOL A   1      11.654 -24.795  -9.398  1.00  0.00     0.006 C 
ATOM     11  N2  MOL A   1      10.263 -24.411  -9.205  1.00  0.00    -0.359 N 
ATOM     12  C3  MOL A   1       9.506 -23.775 -10.240  1.00  0.00     0.222 C 
ATOM     13  O4  MOL A   1      10.042 -23.527 -11.355  1.00  0.00    -0.275 OA
ENDBRANCH   9  12
ENDBRANCH   8   9
BRANCH   8  14
ATOM     14  N7  MOL A   1       8.995 -21.383  -8.927  1.00  0.00    -0.346 N 
ATOM     15  C8  MOL A   1      10.021 -20.521  -9.422  1.00  0.00     0.258 C 
ATOM     16  O9  MOL A   1      10.028 -20.171 -10.632  1.00  0.00    -0.271 OA
BRANCH  15  17
ATOM     17 C10  MOL A   1      11.092 -20.011  -8.504  1.00  0.00     0.167 C 
BRANCH  17  18
ATOM     18 O11  MOL A   1      11.626 -18.783  -8.993  1.00  0.00    -0.480 OA
BRANCH  18  19
ATOM     19 C12  MOL A   1      11.854 -17.688  -8.156  1.00  0.00     0.166 A 
ATOM     20 C13  MOL A   1      10.792 -17.062  -7.465  1.00  0.00     0.012 A 
ATOM     21 C21  MOL A   1      11.077 -16.015  -6.573  1.00  0.00    -0.054 A 
ATOM     22 C22  MOL A   1      12.387 -15.565  -6.404  1.00  0.00    -0.058 A 
ATOM     23 C23  MOL A   1      13.428 -16.152  -7.124  1.00  0.00    -0.016 A 
ATOM     24 C24  MOL A   1      13.169 -17.215  -8.009  1.00  0.00     0.161 A 
BRANCH  20  25
ATOM     25 C14  MOL A   1       9.353 -17.486  -7.663  1.00  0.00     0.028 C 
BRANCH  25  26
ATOM     26 N15  MOL A   1       8.645 -16.522  -8.529  1.00  0.00    -0.287 NA
ATOM     27 C16  MOL A   1       7.184 -16.640  -8.390  1.00  0.00     0.064 C 
ATOM     28 C17  MOL A   1       7.014 -17.128  -9.815  1.00  0.00     0.272 C 
ATOM     29 F18  MOL A   1       6.333 -16.240 -10.629  1.00  0.00    -0.204 F 
ATOM     30 F19  MOL A   1       6.561 -18.434  -9.907  1.00  0.00    -0.204 F 
ATOM     31 C20  MOL A   1       8.522 -17.005  -9.915  1.00  0.00     0.064 C 
ENDBRANCH  25  26
ENDBRANCH  20  25
BRANCH  24  32
ATOM     32 O25  MOL A   1      14.186 -17.832  -8.752  1.00  0.00    -0.493 OA
ATOM     33 C26  MOL A   1      15.108 -18.779  -8.224  1.00  0.00     0.078 C 
ENDBRANCH  24  32
ENDBRANCH  18  19
ENDBRANCH  17  18
ENDBRANCH  15  17
ENDBRANCH   8  14
ENDBRANCH   1   8
TORSDOF 10
ENDMDL
MODEL 49
REMARK VINA RESULT:    -7.951      5.154      9.861
REMARK INTER + INTRA:         -13.647
REMARK INTER:                 -12.477
REMARK INTRA:                  -1.170
REMARK UNBOUND:                -1.048
REMARK  10 active torsions:
REMARK  status: ('A' for Active; 'I' for Inactive)
REMARK   1   A    between atoms:  C27_1   and   C6_8  
REMARK   2   A    between atoms:  C6_8    and   C5_9  
REMARK   3   A    between atoms:  C5_9    and   C3_12 
REMARK   4   A    between atoms:  C6_8    and   N7_14 
REMARK   5   A    between atoms:  C8_15   and  C10_17 
REMARK   6   A    between atoms: C10_17   and  O11_18 
REMARK   7   A    between atoms: O11_18   and  C12_19 
REMARK   8   A    between atoms: C13_20   and  C14_25 
REMARK   9   A    between atoms: C14_25   and  N15_26 
REMARK   10  A    between atoms: C24_24   and  O25_32 
ROOT
ATOM      1 C27  MOL A   1       7.144 -17.235 -10.440  1.00  0.00    -0.024 A 
ATOM      2 C28  MOL A   1       7.497 -17.932 -11.610  1.00  0.00    -0.057 A 
ATOM      3 C29  MOL A   1       7.105 -17.454 -12.865  1.00  0.00    -0.061 A 
ATOM      4 C30  MOL A   1       6.357 -16.277 -12.965  1.00  0.00    -0.048 A 
ATOM      5 C31  MOL A   1       6.002 -15.572 -11.809  1.00  0.00     0.018 A 
ATOM      6 Br32 MOL A   1       4.997 -13.950 -11.948  1.00  0.00    -0.051 Br
ATOM      7 C33  MOL A   1       6.387 -16.050 -10.553  1.00  0.00    -0.043 A 
ENDROOT
BRANCH   1   8
ATOM      8  C6  MOL A   1       7.509 -17.797  -9.084  1.00  0.00     0.063 C 
BRANCH   8   9
ATOM      9  C5  MOL A   1       6.739 -17.052  -7.979  1.00  0.00     0.051 C 
BRANCH   9  12
ATOM     10  C1  MOL A   1       4.187 -19.952  -7.481  1.00  0.00     0.006 C 
ATOM     11  N2  MOL A   1       5.363 -19.193  -7.879  1.00  0.00    -0.359 N 
ATOM     12  C3  MOL A   1       5.508 -17.805  -7.563  1.00  0.00     0.222 C 
ATOM     13  O4  MOL A   1       4.600 -17.203  -6.927  1.00  0.00    -0.275 OA
ENDBRANCH   9  12
ENDBRANCH   8   9
BRANCH   8  14
ATOM     14  N7  MOL A   1       8.956 -17.694  -8.864  1.00  0.00    -0.346 N 
ATOM     15  C8  MOL A   1       9.824 -18.828  -8.913  1.00  0.00     0.258 C 
ATOM     16  O9  MOL A   1       9.358 -19.975  -9.142  1.00  0.00    -0.271 OA
BRANCH  15  17
ATOM     17 C10  MOL A   1      11.300 -18.662  -8.707  1.00  0.00     0.167 C 
BRANCH  17  18
ATOM     18 O11  MOL A   1      11.670 -19.075  -7.393  1.00  0.00    -0.480 OA
BRANCH  18  19
ATOM     19 C12  MOL A   1      12.901 -19.679  -7.125  1.00  0.00     0.166 A 
ATOM     20 C13  MOL A   1      14.021 -18.913  -6.730  1.00  0.00     0.012 A 
ATOM     21 C21  MOL A   1      15.217 -19.570  -6.394  1.00  0.00    -0.054 A 
ATOM     22 C22  MOL A   1      15.314 -20.958  -6.494  1.00  0.00    -0.058 A 
ATOM     23 C23  MOL A   1      14.223 -21.708  -6.932  1.00  0.00    -0.016 A 
ATOM     24 C24  MOL A   1      13.009 -21.074  -7.256  1.00  0.00     0.161 A 
BRANCH  20  25
ATOM     25 C14  MOL A   1      13.969 -17.403  -6.661  1.00  0.00     0.028 C 
BRANCH  25  26
ATOM     26 N15  MOL A   1      15.231 -16.820  -7.159  1.00  0.00    -0.287 NA
ATOM     27 C16  MOL A   1      15.636 -15.646  -6.367  1.00  0.00     0.064 C 
ATOM     28 C17  MOL A   1      15.437 -14.698  -7.534  1.00  0.00     0.272 C 
ATOM     29 F18  MOL A   1      16.612 -14.131  -7.995  1.00  0.00    -0.204 F 
ATOM     30 F19  MOL A   1      14.411 -13.788  -7.344  1.00  0.00    -0.204 F 
ATOM     31 C20  MOL A   1      15.014 -15.929  -8.312  1.00  0.00     0.064 C 
ENDBRANCH  25  26
ENDBRANCH  20  25
BRANCH  24  32
ATOM     32 O25  MOL A   1      11.889 -21.791  -7.701  1.00  0.00    -0.493 OA
ATOM     33 C26  MOL A   1      11.917 -23.152  -8.117  1.00  0.00     0.078 C 
ENDBRANCH  24  32
ENDBRANCH  18  19
ENDBRANCH  17  18
ENDBRANCH  15  17
ENDBRANCH   8  14
ENDBRANCH   1   8
TORSDOF 10
ENDMDL
MODEL 50
REMARK VINA RESULT:    -7.946      4.920      9.889
REMARK INTER + INTRA:         -13.639
REMARK INTER:                 -12.812
REMARK INTRA:                  -0.827
REMARK UNBOUND:                -1.048
REMARK  10 active torsions:
REMARK  status: ('A' for Active; 'I' for Inactive)
REMARK   1   A    between atoms:  C27_1   and   C6_8  
REMARK   2   A    between atoms:  C6_8    and   C5_9  
REMARK   3   A    between atoms:  C5_9    and   C3_12 
REMARK   4   A    between atoms:  C6_8    and   N7_14 
REMARK   5   A    between atoms:  C8_15   and  C10_17 
REMARK   6   A    between atoms: C10_17   and  O11_18 
REMARK   7   A    between atoms: O11_18   and  C12_19 
REMARK   8   A    between atoms: C13_20   and  C14_25 
REMARK   9   A    between atoms: C14_25   and  N15_26 
REMARK   10  A    between atoms: C24_24   and  O25_32 
ROOT
ATOM      1 C27  MOL A   1       7.240 -17.100 -10.325  1.00  0.00    -0.024 A 
ATOM      2 C28  MOL A   1       7.558 -17.879 -11.453  1.00  0.00    -0.057 A 
ATOM      3 C29  MOL A   1       7.114 -17.498 -12.724  1.00  0.00    -0.061 A 
ATOM      4 C30  MOL A   1       6.349 -16.339 -12.881  1.00  0.00    -0.048 A 
ATOM      5 C31  MOL A   1       6.029 -15.554 -11.768  1.00  0.00     0.018 A 
ATOM      6 Br32 MOL A   1       5.000 -13.955 -11.988  1.00  0.00    -0.051 Br
ATOM      7 C33  MOL A   1       6.466 -15.934 -10.495  1.00  0.00    -0.043 A 
ENDROOT
BRANCH   1   8
ATOM      8  C6  MOL A   1       7.662 -17.557  -8.946  1.00  0.00     0.063 C 
BRANCH   8   9
ATOM      9  C5  MOL A   1       7.163 -16.561  -7.884  1.00  0.00     0.051 C 
BRANCH   9  12
ATOM     10  C1  MOL A   1       3.443 -15.929  -6.916  1.00  0.00     0.006 C 
ATOM     11  N2  MOL A   1       4.843 -15.718  -7.256  1.00  0.00    -0.359 N 
ATOM     12  C3  MOL A   1       5.727 -16.812  -7.526  1.00  0.00     0.222 C 
ATOM     13  O4  MOL A   1       5.302 -17.998  -7.466  1.00  0.00    -0.275 OA
ENDBRANCH   9  12
ENDBRANCH   8   9
BRANCH   8  14
ATOM     14  N7  MOL A   1       9.121 -17.694  -8.880  1.00  0.00    -0.346 N 
ATOM     15  C8  MOL A   1       9.763 -18.897  -8.451  1.00  0.00     0.258 C 
ATOM     16  O9  MOL A   1       9.076 -19.892  -8.100  1.00  0.00    -0.271 OA
BRANCH  15  17
ATOM     17 C10  MOL A   1      11.259 -18.992  -8.428  1.00  0.00     0.167 C 
BRANCH  17  18
ATOM     18 O11  MOL A   1      11.719 -19.296  -7.113  1.00  0.00    -0.480 OA
BRANCH  18  19
ATOM     19 C12  MOL A   1      13.026 -19.726  -6.866  1.00  0.00     0.166 A 
ATOM     20 C13  MOL A   1      14.090 -18.802  -6.749  1.00  0.00     0.012 A 
ATOM     21 C21  MOL A   1      15.372 -19.272  -6.422  1.00  0.00    -0.054 A 
ATOM     22 C22  MOL A   1      15.606 -20.638  -6.261  1.00  0.00    -0.058 A 
ATOM     23 C23  MOL A   1      14.566 -21.552  -6.427  1.00  0.00    -0.016 A 
ATOM     24 C24  MOL A   1      13.268 -21.103  -6.735  1.00  0.00     0.161 A 
BRANCH  20  25
ATOM     25 C14  MOL A   1      13.885 -17.319  -6.969  1.00  0.00     0.028 C 
BRANCH  25  26
ATOM     26 N15  MOL A   1      15.185 -16.618  -6.998  1.00  0.00    -0.287 NA
ATOM     27 C16  MOL A   1      15.071 -15.245  -6.479  1.00  0.00     0.064 C 
ATOM     28 C17  MOL A   1      15.389 -14.630  -7.827  1.00  0.00     0.272 C 
ATOM     29 F18  MOL A   1      16.596 -13.953  -7.859  1.00  0.00    -0.204 F 
ATOM     30 F19  MOL A   1      14.334 -13.923  -8.380  1.00  0.00    -0.204 F 
ATOM     31 C20  MOL A   1      15.484 -16.058  -8.327  1.00  0.00     0.064 C 
ENDBRANCH  25  26
ENDBRANCH  20  25
BRANCH  24  32
ATOM     32 O25  MOL A   1      12.195 -21.989  -6.910  1.00  0.00    -0.493 OA
ATOM     33 C26  MOL A   1      11.838 -22.586  -8.152  1.00  0.00     0.078 C 
ENDBRANCH  24  32
ENDBRANCH  18  19
ENDBRANCH  17  18
ENDBRANCH  15  17
ENDBRANCH   8  14
ENDBRANCH   1   8
TORSDOF 10
ENDMDL
MODEL 51
REMARK VINA RESULT:    -7.939      5.616      9.857
REMARK INTER + INTRA:         -13.629
REMARK INTER:                 -12.478
REMARK INTRA:                  -1.151
REMARK UNBOUND:                -1.048
REMARK  10 active torsions:
REMARK  status: ('A' for Active; 'I' for Inactive)
REMARK   1   A    between atoms:  C27_1   and   C6_8  
REMARK   2   A    between atoms:  C6_8    and   C5_9  
REMARK   3   A    between atoms:  C5_9    and   C3_12 
REMARK   4   A    between atoms:  C6_8    and   N7_14 
REMARK   5   A    between atoms:  C8_15   and  C10_17 
REMARK   6   A    between atoms: C10_17   and  O11_18 
REMARK   7   A    between atoms: O11_18   and  C12_19 
REMARK   8   A    between atoms: C13_20   and  C14_25 
REMARK   9   A    between atoms: C14_25   and  N15_26 
REMARK   10  A    between atoms: C24_24   and  O25_32 
ROOT
ATOM      1 C27  MOL A   1       6.782 -18.203  -8.434  1.00  0.00    -0.024 A 
ATOM      2 C28  MOL A   1       6.113 -19.437  -8.340  1.00  0.00    -0.057 A 
ATOM      3 C29  MOL A   1       4.886 -19.528  -7.674  1.00  0.00    -0.061 A 
ATOM      4 C30  MOL A   1       4.315 -18.390  -7.098  1.00  0.00    -0.048 A 
ATOM      5 C31  MOL A   1       4.968 -17.156  -7.188  1.00  0.00     0.018 A 
ATOM      6 Br32 MOL A   1       4.175 -15.594  -6.417  1.00  0.00    -0.051 Br
ATOM      7 C33  MOL A   1       6.198 -17.062  -7.847  1.00  0.00    -0.043 A 
ENDROOT
BRANCH   1   8
ATOM      8  C6  MOL A   1       8.143 -18.128  -9.092  1.00  0.00     0.063 C 
BRANCH   8   9
ATOM      9  C5  MOL A   1       8.038 -18.544 -10.570  1.00  0.00     0.051 C 
BRANCH   9  12
ATOM     10  C1  MOL A   1       9.209 -22.236 -10.981  1.00  0.00     0.006 C 
ATOM     11  N2  MOL A   1       8.399 -21.062 -10.690  1.00  0.00    -0.359 N 
ATOM     12  C3  MOL A   1       8.902 -19.734 -10.870  1.00  0.00     0.222 C 
ATOM     13  O4  MOL A   1      10.080 -19.555 -11.286  1.00  0.00    -0.275 OA
ENDBRANCH   9  12
ENDBRANCH   8   9
BRANCH   8  14
ATOM     14  N7  MOL A   1       9.099 -18.984  -8.381  1.00  0.00    -0.346 N 
ATOM     15  C8  MOL A   1      10.290 -18.473  -7.780  1.00  0.00     0.258 C 
ATOM     16  O9  MOL A   1      10.563 -17.245  -7.855  1.00  0.00    -0.271 OA
BRANCH  15  17
ATOM     17 C10  MOL A   1      11.220 -19.388  -7.042  1.00  0.00     0.167 C 
BRANCH  17  18
ATOM     18 O11  MOL A   1      12.400 -19.624  -7.808  1.00  0.00    -0.480 OA
BRANCH  18  19
ATOM     19 C12  MOL A   1      13.618 -19.958  -7.210  1.00  0.00     0.166 A 
ATOM     20 C13  MOL A   1      14.447 -18.966  -6.637  1.00  0.00     0.012 A 
ATOM     21 C21  MOL A   1      15.624 -19.355  -5.976  1.00  0.00    -0.054 A 
ATOM     22 C22  MOL A   1      15.997 -20.698  -5.927  1.00  0.00    -0.058 A 
ATOM     23 C23  MOL A   1      15.203 -21.670  -6.536  1.00  0.00    -0.016 A 
ATOM     24 C24  MOL A   1      14.009 -21.306  -7.186  1.00  0.00     0.161 A 
BRANCH  20  25
ATOM     25 C14  MOL A   1      14.102 -17.496  -6.718  1.00  0.00     0.028 C 
BRANCH  25  26
ATOM     26 N15  MOL A   1      15.333 -16.679  -6.761  1.00  0.00    -0.287 NA
ATOM     27 C16  MOL A   1      15.071 -15.284  -6.368  1.00  0.00     0.064 C 
ATOM     28 C17  MOL A   1      15.391 -14.757  -7.753  1.00  0.00     0.272 C 
ATOM     29 F18  MOL A   1      16.531 -13.973  -7.799  1.00  0.00    -0.204 F 
ATOM     30 F19  MOL A   1      14.301 -14.202  -8.404  1.00  0.00    -0.204 F 
ATOM     31 C20  MOL A   1      15.638 -16.207  -8.122  1.00  0.00     0.064 C 
ENDBRANCH  25  26
ENDBRANCH  20  25
BRANCH  24  32
ATOM     32 O25  MOL A   1      13.183 -22.252  -7.812  1.00  0.00    -0.493 OA
ATOM     33 C26  MOL A   1      12.337 -23.165  -7.121  1.00  0.00     0.078 C 
ENDBRANCH  24  32
ENDBRANCH  18  19
ENDBRANCH  17  18
ENDBRANCH  15  17
ENDBRANCH   8  14
ENDBRANCH   1   8
TORSDOF 10
ENDMDL
MODEL 52
REMARK VINA RESULT:    -7.927      5.850     10.184
REMARK INTER + INTRA:         -13.609
REMARK INTER:                 -12.291
REMARK INTRA:                  -1.318
REMARK UNBOUND:                -1.048
REMARK  10 active torsions:
REMARK  status: ('A' for Active; 'I' for Inactive)
REMARK   1   A    between atoms:  C27_1   and   C6_8  
REMARK   2   A    between atoms:  C6_8    and   C5_9  
REMARK   3   A    between atoms:  C5_9    and   C3_12 
REMARK   4   A    between atoms:  C6_8    and   N7_14 
REMARK   5   A    between atoms:  C8_15   and  C10_17 
REMARK   6   A    between atoms: C10_17   and  O11_18 
REMARK   7   A    between atoms: O11_18   and  C12_19 
REMARK   8   A    between atoms: C13_20   and  C14_25 
REMARK   9   A    between atoms: C14_25   and  N15_26 
REMARK   10  A    between atoms: C24_24   and  O25_32 
ROOT
ATOM      1 C27  MOL A   1       7.608 -17.430 -10.516  1.00  0.00    -0.024 A 
ATOM      2 C28  MOL A   1       7.783 -17.990 -11.795  1.00  0.00    -0.057 A 
ATOM      3 C29  MOL A   1       7.149 -17.426 -12.907  1.00  0.00    -0.061 A 
ATOM      4 C30  MOL A   1       6.336 -16.300 -12.754  1.00  0.00    -0.048 A 
ATOM      5 C31  MOL A   1       6.156 -15.731 -11.488  1.00  0.00     0.018 A 
ATOM      6 Br32 MOL A   1       5.061 -14.176 -11.284  1.00  0.00    -0.051 Br
ATOM      7 C33  MOL A   1       6.784 -16.295 -10.373  1.00  0.00    -0.043 A 
ENDROOT
BRANCH   1   8
ATOM      8  C6  MOL A   1       8.239 -18.089  -9.308  1.00  0.00     0.063 C 
BRANCH   8   9
ATOM      9  C5  MOL A   1       7.143 -18.611  -8.361  1.00  0.00     0.051 C 
BRANCH   9  12
ATOM     10  C1  MOL A   1       7.793 -22.317  -9.370  1.00  0.00     0.006 C 
ATOM     11  N2  MOL A   1       7.867 -20.865  -9.301  1.00  0.00    -0.359 N 
ATOM     12  C3  MOL A   1       7.035 -20.108  -8.415  1.00  0.00     0.222 C 
ATOM     13  O4  MOL A   1       6.205 -20.696  -7.670  1.00  0.00    -0.275 OA
ENDBRANCH   9  12
ENDBRANCH   8   9
BRANCH   8  14
ATOM     14  N7  MOL A   1       9.115 -17.141  -8.612  1.00  0.00    -0.346 N 
ATOM     15  C8  MOL A   1      10.274 -17.556  -7.886  1.00  0.00     0.258 C 
ATOM     16  O9  MOL A   1      10.576 -18.777  -7.815  1.00  0.00    -0.271 OA
BRANCH  15  17
ATOM     17 C10  MOL A   1      11.151 -16.543  -7.214  1.00  0.00     0.167 C 
BRANCH  17  18
ATOM     18 O11  MOL A   1      12.351 -17.154  -6.746  1.00  0.00    -0.480 OA
BRANCH  18  19
ATOM     19 C12  MOL A   1      13.614 -16.721  -7.160  1.00  0.00     0.166 A 
ATOM     20 C13  MOL A   1      14.384 -17.478  -8.072  1.00  0.00     0.012 A 
ATOM     21 C21  MOL A   1      15.612 -16.967  -8.522  1.00  0.00    -0.054 A 
ATOM     22 C22  MOL A   1      16.092 -15.749  -8.039  1.00  0.00    -0.058 A 
ATOM     23 C23  MOL A   1      15.354 -15.027  -7.101  1.00  0.00    -0.016 A 
ATOM     24 C24  MOL A   1      14.111 -15.510  -6.651  1.00  0.00     0.161 A 
BRANCH  20  25
ATOM     25 C14  MOL A   1      13.921 -18.827  -8.577  1.00  0.00     0.028 C 
BRANCH  25  26
ATOM     26 N15  MOL A   1      14.689 -19.911  -7.929  1.00  0.00    -0.287 NA
ATOM     27 C16  MOL A   1      13.908 -21.158  -7.854  1.00  0.00     0.064 C 
ATOM     28 C17  MOL A   1      13.844 -21.113  -6.340  1.00  0.00     0.272 C 
ATOM     29 F18  MOL A   1      14.543 -22.137  -5.725  1.00  0.00    -0.204 F 
ATOM     30 F19  MOL A   1      12.565 -20.928  -5.841  1.00  0.00    -0.204 F 
ATOM     31 C20  MOL A   1      14.637 -19.826  -6.459  1.00  0.00     0.064 C 
ENDBRANCH  25  26
ENDBRANCH  20  25
BRANCH  24  32
ATOM     32 O25  MOL A   1      13.339 -14.815  -5.708  1.00  0.00    -0.493 OA
ATOM     33 C26  MOL A   1      13.846 -14.275  -4.492  1.00  0.00     0.078 C 
ENDBRANCH  24  32
ENDBRANCH  18  19
ENDBRANCH  17  18
ENDBRANCH  15  17
ENDBRANCH   8  14
ENDBRANCH   1   8
TORSDOF 10
ENDMDL
MODEL 53
REMARK VINA RESULT:    -7.908      5.115      9.510
REMARK INTER + INTRA:         -13.579
REMARK INTER:                 -12.087
REMARK INTRA:                  -1.491
REMARK UNBOUND:                -1.048
REMARK  10 active torsions:
REMARK  status: ('A' for Active; 'I' for Inactive)
REMARK   1   A    between atoms:  C27_1   and   C6_8  
REMARK   2   A    between atoms:  C6_8    and   C5_9  
REMARK   3   A    between atoms:  C5_9    and   C3_12 
REMARK   4   A    between atoms:  C6_8    and   N7_14 
REMARK   5   A    between atoms:  C8_15   and  C10_17 
REMARK   6   A    between atoms: C10_17   and  O11_18 
REMARK   7   A    between atoms: O11_18   and  C12_19 
REMARK   8   A    between atoms: C13_20   and  C14_25 
REMARK   9   A    between atoms: C14_25   and  N15_26 
REMARK   10  A    between atoms: C24_24   and  O25_32 
ROOT
ATOM      1 C27  MOL A   1       6.901 -18.810  -9.381  1.00  0.00    -0.024 A 
ATOM      2 C28  MOL A   1       6.059 -18.640  -8.267  1.00  0.00    -0.057 A 
ATOM      3 C29  MOL A   1       5.211 -19.675  -7.856  1.00  0.00    -0.061 A 
ATOM      4 C30  MOL A   1       5.197 -20.887  -8.552  1.00  0.00    -0.048 A 
ATOM      5 C31  MOL A   1       6.032 -21.070  -9.660  1.00  0.00     0.018 A 
ATOM      6 Br32 MOL A   1       6.027 -22.738 -10.598  1.00  0.00    -0.051 Br
ATOM      7 C33  MOL A   1       6.876 -20.036 -10.077  1.00  0.00    -0.043 A 
ENDROOT
BRANCH   1   8
ATOM      8  C6  MOL A   1       7.760 -17.661  -9.863  1.00  0.00     0.063 C 
BRANCH   8   9
ATOM      9  C5  MOL A   1       7.898 -17.712 -11.395  1.00  0.00     0.051 C 
BRANCH   9  12
ATOM     10  C1  MOL A   1       5.343 -14.821 -11.931  1.00  0.00     0.006 C 
ATOM     11  N2  MOL A   1       6.267 -15.758 -11.308  1.00  0.00    -0.359 N 
ATOM     12  C3  MOL A   1       6.943 -16.767 -12.066  1.00  0.00     0.222 C 
ATOM     13  O4  MOL A   1       6.742 -16.867 -13.307  1.00  0.00    -0.275 OA
ENDBRANCH   9  12
ENDBRANCH   8   9
BRANCH   8  14
ATOM     14  N7  MOL A   1       9.080 -17.711  -9.224  1.00  0.00    -0.346 N 
ATOM     15  C8  MOL A   1       9.448 -16.842  -8.151  1.00  0.00     0.258 C 
ATOM     16  O9  MOL A   1       8.634 -15.983  -7.722  1.00  0.00    -0.271 OA
BRANCH  15  17
ATOM     17 C10  MOL A   1      10.802 -16.953  -7.516  1.00  0.00     0.167 C 
BRANCH  17  18
ATOM     18 O11  MOL A   1      11.585 -17.941  -8.181  1.00  0.00    -0.480 OA
BRANCH  18  19
ATOM     19 C12  MOL A   1      12.199 -18.989  -7.489  1.00  0.00     0.166 A 
ATOM     20 C13  MOL A   1      13.426 -18.799  -6.813  1.00  0.00     0.012 A 
ATOM     21 C21  MOL A   1      13.968 -19.857  -6.065  1.00  0.00    -0.054 A 
ATOM     22 C22  MOL A   1      13.329 -21.097  -6.027  1.00  0.00    -0.058 A 
ATOM     23 C23  MOL A   1      12.144 -21.297  -6.736  1.00  0.00    -0.016 A 
ATOM     24 C24  MOL A   1      11.572 -20.246  -7.476  1.00  0.00     0.161 A 
BRANCH  20  25
ATOM     25 C14  MOL A   1      14.175 -17.486  -6.875  1.00  0.00     0.028 C 
BRANCH  25  26
ATOM     26 N15  MOL A   1      14.909 -17.370  -8.151  1.00  0.00    -0.287 NA
ATOM     27 C16  MOL A   1      16.311 -17.797  -8.010  1.00  0.00     0.064 C 
ATOM     28 C17  MOL A   1      16.839 -16.400  -8.272  1.00  0.00     0.272 C 
ATOM     29 F18  MOL A   1      17.547 -16.286  -9.456  1.00  0.00    -0.204 F 
ATOM     30 F19  MOL A   1      17.476 -15.831  -7.181  1.00  0.00    -0.204 F 
ATOM     31 C20  MOL A   1      15.383 -15.997  -8.397  1.00  0.00     0.064 C 
ENDBRANCH  25  26
ENDBRANCH  20  25
BRANCH  24  32
ATOM     32 O25  MOL A   1      10.384 -20.406  -8.203  1.00  0.00    -0.493 OA
ATOM     33 C26  MOL A   1      10.146 -21.454  -9.137  1.00  0.00     0.078 C 
ENDBRANCH  24  32
ENDBRANCH  18  19
ENDBRANCH  17  18
ENDBRANCH  15  17
ENDBRANCH   8  14
ENDBRANCH   1   8
TORSDOF 10
ENDMDL
MODEL 54
REMARK VINA RESULT:    -7.887      2.940      4.285
REMARK INTER + INTRA:         -13.546
REMARK INTER:                 -12.100
REMARK INTRA:                  -1.446
REMARK UNBOUND:                -1.048
REMARK  10 active torsions:
REMARK  status: ('A' for Active; 'I' for Inactive)
REMARK   1   A    between atoms:  C27_1   and   C6_8  
REMARK   2   A    between atoms:  C6_8    and   C5_9  
REMARK   3   A    between atoms:  C5_9    and   C3_12 
REMARK   4   A    between atoms:  C6_8    and   N7_14 
REMARK   5   A    between atoms:  C8_15   and  C10_17 
REMARK   6   A    between atoms: C10_17   and  O11_18 
REMARK   7   A    between atoms: O11_18   and  C12_19 
REMARK   8   A    between atoms: C13_20   and  C14_25 
REMARK   9   A    between atoms: C14_25   and  N15_26 
REMARK   10  A    between atoms: C24_24   and  O25_32 
ROOT
ATOM      1 C27  MOL A   1       7.045 -19.317  -9.942  1.00  0.00    -0.024 A 
ATOM      2 C28  MOL A   1       7.180 -20.336 -10.902  1.00  0.00    -0.057 A 
ATOM      3 C29  MOL A   1       6.571 -21.580 -10.703  1.00  0.00    -0.061 A 
ATOM      4 C30  MOL A   1       5.824 -21.819  -9.546  1.00  0.00    -0.048 A 
ATOM      5 C31  MOL A   1       5.679 -20.812  -8.585  1.00  0.00     0.018 A 
ATOM      6 Br32 MOL A   1       4.638 -21.133  -7.012  1.00  0.00    -0.051 Br
ATOM      7 C33  MOL A   1       6.290 -19.569  -8.778  1.00  0.00    -0.043 A 
ENDROOT
BRANCH   1   8
ATOM      8  C6  MOL A   1       7.765 -17.999 -10.130  1.00  0.00     0.063 C 
BRANCH   8   9
ATOM      9  C5  MOL A   1       8.286 -17.485  -8.775  1.00  0.00     0.051 C 
BRANCH   9  12
ATOM     10  C1  MOL A   1      11.065 -19.858  -7.427  1.00  0.00     0.006 C 
ATOM     11  N2  MOL A   1       9.766 -19.282  -7.742  1.00  0.00    -0.359 N 
ATOM     12  C3  MOL A   1       9.641 -18.048  -8.457  1.00  0.00     0.222 C 
ATOM     13  O4  MOL A   1      10.673 -17.425  -8.828  1.00  0.00    -0.275 OA
ENDBRANCH   9  12
ENDBRANCH   8   9
BRANCH   8  14
ATOM     14  N7  MOL A   1       6.870 -17.014 -10.747  1.00  0.00    -0.346 N 
ATOM     15  C8  MOL A   1       6.820 -16.799 -12.159  1.00  0.00     0.258 C 
ATOM     16  O9  MOL A   1       7.568 -17.458 -12.929  1.00  0.00    -0.271 OA
BRANCH  15  17
ATOM     17 C10  MOL A   1       5.868 -15.797 -12.739  1.00  0.00     0.167 C 
BRANCH  17  18
ATOM     18 O11  MOL A   1       5.711 -14.688 -11.858  1.00  0.00    -0.480 OA
BRANCH  18  19
ATOM     19 C12  MOL A   1       4.458 -14.139 -11.571  1.00  0.00     0.166 A 
ATOM     20 C13  MOL A   1       3.804 -14.409 -10.347  1.00  0.00     0.012 A 
ATOM     21 C21  MOL A   1       2.583 -13.773 -10.069  1.00  0.00    -0.054 A 
ATOM     22 C22  MOL A   1       1.996 -12.924 -11.006  1.00  0.00    -0.058 A 
ATOM     23 C23  MOL A   1       2.619 -12.698 -12.234  1.00  0.00    -0.016 A 
ATOM     24 C24  MOL A   1       3.853 -13.308 -12.528  1.00  0.00     0.161 A 
BRANCH  20  25
ATOM     25 C14  MOL A   1       4.383 -15.366  -9.329  1.00  0.00     0.028 C 
BRANCH  25  26
ATOM     26 N15  MOL A   1       4.062 -14.917  -7.959  1.00  0.00    -0.287 NA
ATOM     27 C16  MOL A   1       5.065 -15.383  -6.986  1.00  0.00     0.064 C 
ATOM     28 C17  MOL A   1       4.069 -16.283  -6.281  1.00  0.00     0.272 C 
ATOM     29 F18  MOL A   1       3.777 -15.882  -4.988  1.00  0.00    -0.204 F 
ATOM     30 F19  MOL A   1       4.357 -17.633  -6.398  1.00  0.00    -0.204 F 
ATOM     31 C20  MOL A   1       3.069 -15.789  -7.307  1.00  0.00     0.064 C 
ENDBRANCH  25  26
ENDBRANCH  20  25
BRANCH  24  32
ATOM     32 O25  MOL A   1       4.510 -13.108 -13.751  1.00  0.00    -0.493 OA
ATOM     33 C26  MOL A   1       4.726 -11.836 -14.351  1.00  0.00     0.078 C 
ENDBRANCH  24  32
ENDBRANCH  18  19
ENDBRANCH  17  18
ENDBRANCH  15  17
ENDBRANCH   8  14
ENDBRANCH   1   8
TORSDOF 10
ENDMDL
MODEL 55
REMARK VINA RESULT:    -7.884      4.933      8.208
REMARK INTER + INTRA:         -13.542
REMARK INTER:                 -13.219
REMARK INTRA:                  -0.323
REMARK UNBOUND:                -1.048
REMARK  10 active torsions:
REMARK  status: ('A' for Active; 'I' for Inactive)
REMARK   1   A    between atoms:  C27_1   and   C6_8  
REMARK   2   A    between atoms:  C6_8    and   C5_9  
REMARK   3   A    between atoms:  C5_9    and   C3_12 
REMARK   4   A    between atoms:  C6_8    and   N7_14 
REMARK   5   A    between atoms:  C8_15   and  C10_17 
REMARK   6   A    between atoms: C10_17   and  O11_18 
REMARK   7   A    between atoms: O11_18   and  C12_19 
REMARK   8   A    between atoms: C13_20   and  C14_25 
REMARK   9   A    between atoms: C14_25   and  N15_26 
REMARK   10  A    between atoms: C24_24   and  O25_32 
ROOT
ATOM      1 C27  MOL A   1       8.583 -17.613  -8.698  1.00  0.00    -0.024 A 
ATOM      2 C28  MOL A   1       9.105 -16.403  -8.208  1.00  0.00    -0.057 A 
ATOM      3 C29  MOL A   1      10.253 -16.400  -7.407  1.00  0.00    -0.061 A 
ATOM      4 C30  MOL A   1      10.889 -17.602  -7.090  1.00  0.00    -0.048 A 
ATOM      5 C31  MOL A   1      10.382 -18.813  -7.574  1.00  0.00     0.018 A 
ATOM      6 Br32 MOL A   1      11.267 -20.458  -7.157  1.00  0.00    -0.051 Br
ATOM      7 C33  MOL A   1       9.232 -18.821  -8.370  1.00  0.00    -0.043 A 
ENDROOT
BRANCH   1   8
ATOM      8  C6  MOL A   1       7.301 -17.615  -9.502  1.00  0.00     0.063 C 
BRANCH   8   9
ATOM      9  C5  MOL A   1       6.751 -16.182  -9.621  1.00  0.00     0.051 C 
BRANCH   9  12
ATOM     10  C1  MOL A   1       5.176 -14.351 -12.677  1.00  0.00     0.006 C 
ATOM     11  N2  MOL A   1       5.573 -14.693 -11.319  1.00  0.00    -0.359 N 
ATOM     12  C3  MOL A   1       6.348 -15.862 -11.031  1.00  0.00     0.222 C 
ATOM     13  O4  MOL A   1       6.701 -16.632 -11.966  1.00  0.00    -0.275 OA
ENDBRANCH   9  12
ENDBRANCH   8   9
BRANCH   8  14
ATOM     14  N7  MOL A   1       6.310 -18.498  -8.877  1.00  0.00    -0.346 N 
ATOM     15  C8  MOL A   1       5.458 -18.066  -7.814  1.00  0.00     0.258 C 
ATOM     16  O9  MOL A   1       5.544 -16.891  -7.368  1.00  0.00    -0.271 OA
BRANCH  15  17
ATOM     17 C10  MOL A   1       4.443 -19.002  -7.228  1.00  0.00     0.167 C 
BRANCH  17  18
ATOM     18 O11  MOL A   1       4.833 -20.357  -7.442  1.00  0.00    -0.480 OA
BRANCH  18  19
ATOM     19 C12  MOL A   1       4.329 -21.115  -8.502  1.00  0.00     0.166 A 
ATOM     20 C13  MOL A   1       5.193 -21.805  -9.382  1.00  0.00     0.012 A 
ATOM     21 C21  MOL A   1       4.641 -22.619 -10.386  1.00  0.00    -0.054 A 
ATOM     22 C22  MOL A   1       3.258 -22.708 -10.545  1.00  0.00    -0.058 A 
ATOM     23 C23  MOL A   1       2.408 -21.986  -9.707  1.00  0.00    -0.016 A 
ATOM     24 C24  MOL A   1       2.937 -21.180  -8.682  1.00  0.00     0.161 A 
BRANCH  20  25
ATOM     25 C14  MOL A   1       6.697 -21.691  -9.274  1.00  0.00     0.028 C 
BRANCH  25  26
ATOM     26 N15  MOL A   1       7.350 -22.399 -10.395  1.00  0.00    -0.287 NA
ATOM     27 C16  MOL A   1       8.252 -23.460  -9.913  1.00  0.00     0.064 C 
ATOM     28 C17  MOL A   1       9.485 -22.748 -10.434  1.00  0.00     0.272 C 
ATOM     29 F18  MOL A   1      10.116 -23.415 -11.470  1.00  0.00    -0.204 F 
ATOM     30 F19  MOL A   1      10.346 -22.321  -9.435  1.00  0.00    -0.204 F 
ATOM     31 C20  MOL A   1       8.526 -21.672 -10.902  1.00  0.00     0.064 C 
ENDBRANCH  25  26
ENDBRANCH  20  25
BRANCH  24  32
ATOM     32 O25  MOL A   1       2.118 -20.438  -7.819  1.00  0.00    -0.493 OA
ATOM     33 C26  MOL A   1       0.773 -20.776  -7.497  1.00  0.00     0.078 C 
ENDBRANCH  24  32
ENDBRANCH  18  19
ENDBRANCH  17  18
ENDBRANCH  15  17
ENDBRANCH   8  14
ENDBRANCH   1   8
TORSDOF 10
ENDMDL
MODEL 56
REMARK VINA RESULT:    -7.884      6.310     10.083
REMARK INTER + INTRA:         -13.541
REMARK INTER:                 -12.026
REMARK INTRA:                  -1.515
REMARK UNBOUND:                -1.048
REMARK  10 active torsions:
REMARK  status: ('A' for Active; 'I' for Inactive)
REMARK   1   A    between atoms:  C27_1   and   C6_8  
REMARK   2   A    between atoms:  C6_8    and   C5_9  
REMARK   3   A    between atoms:  C5_9    and   C3_12 
REMARK   4   A    between atoms:  C6_8    and   N7_14 
REMARK   5   A    between atoms:  C8_15   and  C10_17 
REMARK   6   A    between atoms: C10_17   and  O11_18 
REMARK   7   A    between atoms: O11_18   and  C12_19 
REMARK   8   A    between atoms: C13_20   and  C14_25 
REMARK   9   A    between atoms: C14_25   and  N15_26 
REMARK   10  A    between atoms: C24_24   and  O25_32 
ROOT
ATOM      1 C27  MOL A   1       7.189 -20.193  -8.645  1.00  0.00    -0.024 A 
ATOM      2 C28  MOL A   1       6.902 -18.818  -8.562  1.00  0.00    -0.057 A 
ATOM      3 C29  MOL A   1       5.690 -18.380  -8.017  1.00  0.00    -0.061 A 
ATOM      4 C30  MOL A   1       4.754 -19.308  -7.551  1.00  0.00    -0.048 A 
ATOM      5 C31  MOL A   1       5.029 -20.678  -7.624  1.00  0.00     0.018 A 
ATOM      6 Br32 MOL A   1       3.758 -21.947  -6.965  1.00  0.00    -0.051 Br
ATOM      7 C33  MOL A   1       6.237 -21.120  -8.173  1.00  0.00    -0.043 A 
ENDROOT
BRANCH   1   8
ATOM      8  C6  MOL A   1       8.470 -20.661  -9.302  1.00  0.00     0.063 C 
BRANCH   8   9
ATOM      9  C5  MOL A   1       8.590 -22.191  -9.191  1.00  0.00     0.051 C 
BRANCH   9  12
ATOM     10  C1  MOL A   1      10.748 -24.625 -11.335  1.00  0.00     0.006 C 
ATOM     11  N2  MOL A   1      10.010 -24.035 -10.228  1.00  0.00    -0.359 N 
ATOM     12  C3  MOL A   1       9.353 -22.768 -10.349  1.00  0.00     0.222 C 
ATOM     13  O4  MOL A   1       9.408 -22.128 -11.434  1.00  0.00    -0.275 OA
ENDBRANCH   9  12
ENDBRANCH   8   9
BRANCH   8  14
ATOM     14  N7  MOL A   1       9.627 -20.006  -8.683  1.00  0.00    -0.346 N 
ATOM     15  C8  MOL A   1      10.537 -19.191  -9.424  1.00  0.00     0.258 C 
ATOM     16  O9  MOL A   1      10.371 -19.017 -10.661  1.00  0.00    -0.271 OA
BRANCH  15  17
ATOM     17 C10  MOL A   1      11.689 -18.522  -8.737  1.00  0.00     0.167 C 
BRANCH  17  18
ATOM     18 O11  MOL A   1      12.815 -19.395  -8.688  1.00  0.00    -0.480 OA
BRANCH  18  19
ATOM     19 C12  MOL A   1      13.394 -19.792  -7.479  1.00  0.00     0.166 A 
ATOM     20 C13  MOL A   1      14.281 -18.942  -6.780  1.00  0.00     0.012 A 
ATOM     21 C21  MOL A   1      14.777 -19.349  -5.530  1.00  0.00    -0.054 A 
ATOM     22 C22  MOL A   1      14.440 -20.597  -5.006  1.00  0.00    -0.058 A 
ATOM     23 C23  MOL A   1      13.605 -21.455  -5.722  1.00  0.00    -0.016 A 
ATOM     24 C24  MOL A   1      13.079 -21.061  -6.966  1.00  0.00     0.161 A 
BRANCH  20  25
ATOM     25 C14  MOL A   1      14.712 -17.605  -7.341  1.00  0.00     0.028 C 
BRANCH  25  26
ATOM     26 N15  MOL A   1      15.797 -17.028  -6.522  1.00  0.00    -0.287 NA
ATOM     27 C16  MOL A   1      15.627 -15.576  -6.341  1.00  0.00     0.064 C 
ATOM     28 C17  MOL A   1      16.874 -15.256  -7.141  1.00  0.00     0.272 C 
ATOM     29 F18  MOL A   1      17.889 -14.695  -6.386  1.00  0.00    -0.204 F 
ATOM     30 F19  MOL A   1      16.620 -14.585  -8.326  1.00  0.00    -0.204 F 
ATOM     31 C20  MOL A   1      17.008 -16.756  -7.315  1.00  0.00     0.064 C 
ENDBRANCH  25  26
ENDBRANCH  20  25
BRANCH  24  32
ATOM     32 O25  MOL A   1      12.237 -21.894  -7.717  1.00  0.00    -0.493 OA
ATOM     33 C26  MOL A   1      12.444 -23.290  -7.905  1.00  0.00     0.078 C 
ENDBRANCH  24  32
ENDBRANCH  18  19
ENDBRANCH  17  18
ENDBRANCH  15  17
ENDBRANCH   8  14
ENDBRANCH   1   8
TORSDOF 10
ENDMDL
MODEL 57
REMARK VINA RESULT:    -7.874      4.845      9.786
REMARK INTER + INTRA:         -13.525
REMARK INTER:                 -12.380
REMARK INTRA:                  -1.145
REMARK UNBOUND:                -1.048
REMARK  10 active torsions:
REMARK  status: ('A' for Active; 'I' for Inactive)
REMARK   1   A    between atoms:  C27_1   and   C6_8  
REMARK   2   A    between atoms:  C6_8    and   C5_9  
REMARK   3   A    between atoms:  C5_9    and   C3_12 
REMARK   4   A    between atoms:  C6_8    and   N7_14 
REMARK   5   A    between atoms:  C8_15   and  C10_17 
REMARK   6   A    between atoms: C10_17   and  O11_18 
REMARK   7   A    between atoms: O11_18   and  C12_19 
REMARK   8   A    between atoms: C13_20   and  C14_25 
REMARK   9   A    between atoms: C14_25   and  N15_26 
REMARK   10  A    between atoms: C24_24   and  O25_32 
ROOT
ATOM      1 C27  MOL A   1       7.177 -19.448 -10.294  1.00  0.00    -0.024 A 
ATOM      2 C28  MOL A   1       7.070 -20.517 -11.202  1.00  0.00    -0.057 A 
ATOM      3 C29  MOL A   1       6.321 -21.652 -10.874  1.00  0.00    -0.061 A 
ATOM      4 C30  MOL A   1       5.674 -21.732  -9.638  1.00  0.00    -0.048 A 
ATOM      5 C31  MOL A   1       5.770 -20.674  -8.726  1.00  0.00     0.018 A 
ATOM      6 Br32 MOL A   1       4.866 -20.775  -7.043  1.00  0.00    -0.051 Br
ATOM      7 C33  MOL A   1       6.522 -19.540  -9.049  1.00  0.00    -0.043 A 
ENDROOT
BRANCH   1   8
ATOM      8  C6  MOL A   1       8.048 -18.256 -10.627  1.00  0.00     0.063 C 
BRANCH   8   9
ATOM      9  C5  MOL A   1       7.817 -17.826 -12.087  1.00  0.00     0.051 C 
BRANCH   9  12
ATOM     10  C1  MOL A   1       5.551 -14.812 -11.112  1.00  0.00     0.006 C 
ATOM     11  N2  MOL A   1       6.520 -15.896 -11.048  1.00  0.00    -0.359 N 
ATOM     12  C3  MOL A   1       6.804 -16.722 -12.182  1.00  0.00     0.222 C 
ATOM     13  O4  MOL A   1       6.205 -16.524 -13.274  1.00  0.00    -0.275 OA
ENDBRANCH   9  12
ENDBRANCH   8   9
BRANCH   8  14
ATOM     14  N7  MOL A   1       9.461 -18.580 -10.401  1.00  0.00    -0.346 N 
ATOM     15  C8  MOL A   1      10.233 -17.970  -9.365  1.00  0.00     0.258 C 
ATOM     16  O9  MOL A   1       9.712 -17.110  -8.606  1.00  0.00    -0.271 OA
BRANCH  15  17
ATOM     17 C10  MOL A   1      11.668 -18.356  -9.161  1.00  0.00     0.167 C 
BRANCH  17  18
ATOM     18 O11  MOL A   1      12.022 -18.250  -7.784  1.00  0.00    -0.480 OA
BRANCH  18  19
ATOM     19 C12  MOL A   1      12.954 -19.105  -7.190  1.00  0.00     0.166 A 
ATOM     20 C13  MOL A   1      14.281 -18.684  -6.946  1.00  0.00     0.012 A 
ATOM     21 C21  MOL A   1      15.162 -19.548  -6.275  1.00  0.00    -0.054 A 
ATOM     22 C22  MOL A   1      14.750 -20.826  -5.897  1.00  0.00    -0.058 A 
ATOM     23 C23  MOL A   1      13.455 -21.258  -6.183  1.00  0.00    -0.016 A 
ATOM     24 C24  MOL A   1      12.548 -20.402  -6.836  1.00  0.00     0.161 A 
BRANCH  20  25
ATOM     25 C14  MOL A   1      14.781 -17.326  -7.389  1.00  0.00     0.028 C 
BRANCH  25  26
ATOM     26 N15  MOL A   1      15.939 -16.911  -6.573  1.00  0.00    -0.287 NA
ATOM     27 C16  MOL A   1      15.800 -15.522  -6.103  1.00  0.00     0.064 C 
ATOM     28 C17  MOL A   1      16.977 -15.047  -6.931  1.00  0.00     0.272 C 
ATOM     29 F18  MOL A   1      18.060 -14.635  -6.174  1.00  0.00    -0.204 F 
ATOM     30 F19  MOL A   1      16.628 -14.162  -7.939  1.00  0.00    -0.204 F 
ATOM     31 C20  MOL A   1      17.079 -16.484  -7.402  1.00  0.00     0.064 C 
ENDBRANCH  25  26
ENDBRANCH  20  25
BRANCH  24  32
ATOM     32 O25  MOL A   1      11.238 -20.798  -7.144  1.00  0.00    -0.493 OA
ATOM     33 C26  MOL A   1      10.873 -21.549  -8.297  1.00  0.00     0.078 C 
ENDBRANCH  24  32
ENDBRANCH  18  19
ENDBRANCH  17  18
ENDBRANCH  15  17
ENDBRANCH   8  14
ENDBRANCH   1   8
TORSDOF 10
ENDMDL
MODEL 58
REMARK VINA RESULT:    -7.860      4.597      9.010
REMARK INTER + INTRA:         -13.503
REMARK INTER:                 -12.756
REMARK INTRA:                  -0.747
REMARK UNBOUND:                -1.048
REMARK  10 active torsions:
REMARK  status: ('A' for Active; 'I' for Inactive)
REMARK   1   A    between atoms:  C27_1   and   C6_8  
REMARK   2   A    between atoms:  C6_8    and   C5_9  
REMARK   3   A    between atoms:  C5_9    and   C3_12 
REMARK   4   A    between atoms:  C6_8    and   N7_14 
REMARK   5   A    between atoms:  C8_15   and  C10_17 
REMARK   6   A    between atoms: C10_17   and  O11_18 
REMARK   7   A    between atoms: O11_18   and  C12_19 
REMARK   8   A    between atoms: C13_20   and  C14_25 
REMARK   9   A    between atoms: C14_25   and  N15_26 
REMARK   10  A    between atoms: C24_24   and  O25_32 
ROOT
ATOM      1 C27  MOL A   1       6.788 -17.165 -10.001  1.00  0.00    -0.024 A 
ATOM      2 C28  MOL A   1       7.263 -18.001 -11.028  1.00  0.00    -0.057 A 
ATOM      3 C29  MOL A   1       7.116 -17.628 -12.368  1.00  0.00    -0.061 A 
ATOM      4 C30  MOL A   1       6.494 -16.420 -12.696  1.00  0.00    -0.048 A 
ATOM      5 C31  MOL A   1       6.020 -15.578 -11.684  1.00  0.00     0.018 A 
ATOM      6 Br32 MOL A   1       5.188 -13.915 -12.133  1.00  0.00    -0.051 Br
ATOM      7 C33  MOL A   1       6.160 -15.950 -10.343  1.00  0.00    -0.043 A 
ENDROOT
BRANCH   1   8
ATOM      8  C6  MOL A   1       6.885 -17.609  -8.557  1.00  0.00     0.063 C 
BRANCH   8   9
ATOM      9  C5  MOL A   1       6.395 -16.486  -7.626  1.00  0.00     0.051 C 
BRANCH   9  12
ATOM     10  C1  MOL A   1       2.637 -15.621  -7.077  1.00  0.00     0.006 C 
ATOM     11  N2  MOL A   1       4.057 -15.506  -7.372  1.00  0.00    -0.359 N 
ATOM     12  C3  MOL A   1       4.936 -16.635  -7.305  1.00  0.00     0.222 C 
ATOM     13  O4  MOL A   1       4.487 -17.767  -6.977  1.00  0.00    -0.275 OA
ENDBRANCH   9  12
ENDBRANCH   8   9
BRANCH   8  14
ATOM     14  N7  MOL A   1       8.266 -17.982  -8.233  1.00  0.00    -0.346 N 
ATOM     15  C8  MOL A   1       9.305 -17.016  -8.066  1.00  0.00     0.258 C 
ATOM     16  O9  MOL A   1       9.060 -15.788  -8.206  1.00  0.00    -0.271 OA
BRANCH  15  17
ATOM     17 C10  MOL A   1      10.695 -17.451  -7.708  1.00  0.00     0.167 C 
BRANCH  17  18
ATOM     18 O11  MOL A   1      11.194 -18.373  -8.674  1.00  0.00    -0.480 OA
BRANCH  18  19
ATOM     19 C12  MOL A   1      11.549 -19.681  -8.336  1.00  0.00     0.166 A 
ATOM     20 C13  MOL A   1      10.761 -20.782  -8.743  1.00  0.00     0.012 A 
ATOM     21 C21  MOL A   1      11.198 -22.084  -8.449  1.00  0.00    -0.054 A 
ATOM     22 C22  MOL A   1      12.370 -22.290  -7.721  1.00  0.00    -0.058 A 
ATOM     23 C23  MOL A   1      13.120 -21.201  -7.277  1.00  0.00    -0.016 A 
ATOM     24 C24  MOL A   1      12.713 -19.888  -7.577  1.00  0.00     0.161 A 
BRANCH  20  25
ATOM     25 C14  MOL A   1       9.457 -20.596  -9.487  1.00  0.00     0.028 C 
BRANCH  25  26
ATOM     26 N15  MOL A   1       8.706 -21.867  -9.537  1.00  0.00    -0.287 NA
ATOM     27 C16  MOL A   1       8.495 -22.318 -10.923  1.00  0.00     0.064 C 
ATOM     28 C17  MOL A   1       6.994 -22.129 -10.834  1.00  0.00     0.272 C 
ATOM     29 F18  MOL A   1       6.280 -23.313 -10.900  1.00  0.00    -0.204 F 
ATOM     30 F19  MOL A   1       6.507 -21.132 -11.664  1.00  0.00    -0.204 F 
ATOM     31 C20  MOL A   1       7.253 -21.658  -9.416  1.00  0.00     0.064 C 
ENDBRANCH  25  26
ENDBRANCH  20  25
BRANCH  24  32
ATOM     32 O25  MOL A   1      13.437 -18.766  -7.148  1.00  0.00    -0.493 OA
ATOM     33 C26  MOL A   1      14.540 -18.203  -7.850  1.00  0.00     0.078 C 
ENDBRANCH  24  32
ENDBRANCH  18  19
ENDBRANCH  17  18
ENDBRANCH  15  17
ENDBRANCH   8  14
ENDBRANCH   1   8
TORSDOF 10
ENDMDL
MODEL 59
REMARK VINA RESULT:    -7.855      5.378     10.058
REMARK INTER + INTRA:         -13.496
REMARK INTER:                 -12.106
REMARK INTRA:                  -1.390
REMARK UNBOUND:                -1.048
REMARK  10 active torsions:
REMARK  status: ('A' for Active; 'I' for Inactive)
REMARK   1   A    between atoms:  C27_1   and   C6_8  
REMARK   2   A    between atoms:  C6_8    and   C5_9  
REMARK   3   A    between atoms:  C5_9    and   C3_12 
REMARK   4   A    between atoms:  C6_8    and   N7_14 
REMARK   5   A    between atoms:  C8_15   and  C10_17 
REMARK   6   A    between atoms: C10_17   and  O11_18 
REMARK   7   A    between atoms: O11_18   and  C12_19 
REMARK   8   A    between atoms: C13_20   and  C14_25 
REMARK   9   A    between atoms: C14_25   and  N15_26 
REMARK   10  A    between atoms: C24_24   and  O25_32 
ROOT
ATOM      1 C27  MOL A   1       7.777 -18.000  -9.330  1.00  0.00    -0.024 A 
ATOM      2 C28  MOL A   1       7.685 -17.224 -10.500  1.00  0.00    -0.057 A 
ATOM      3 C29  MOL A   1       6.747 -16.190 -10.591  1.00  0.00    -0.061 A 
ATOM      4 C30  MOL A   1       5.894 -15.920  -9.517  1.00  0.00    -0.048 A 
ATOM      5 C31  MOL A   1       5.978 -16.682  -8.347  1.00  0.00     0.018 A 
ATOM      6 Br32 MOL A   1       4.824 -16.298  -6.869  1.00  0.00    -0.051 Br
ATOM      7 C33  MOL A   1       6.910 -17.721  -8.254  1.00  0.00    -0.043 A 
ENDROOT
BRANCH   1   8
ATOM      8  C6  MOL A   1       8.743 -19.163  -9.267  1.00  0.00     0.063 C 
BRANCH   8   9
ATOM      9  C5  MOL A   1       8.069 -20.373  -8.595  1.00  0.00     0.051 C 
BRANCH   9  12
ATOM     10  C1  MOL A   1       9.518 -22.902 -11.179  1.00  0.00     0.006 C 
ATOM     11  N2  MOL A   1       9.288 -21.695 -10.399  1.00  0.00    -0.359 N 
ATOM     12  C3  MOL A   1       8.273 -21.630  -9.391  1.00  0.00     0.222 C 
ATOM     13  O4  MOL A   1       7.544 -22.633  -9.162  1.00  0.00    -0.275 OA
ENDBRANCH   9  12
ENDBRANCH   8   9
BRANCH   8  14
ATOM     14  N7  MOL A   1       9.956 -18.778  -8.538  1.00  0.00    -0.346 N 
ATOM     15  C8  MOL A   1      11.218 -18.597  -9.185  1.00  0.00     0.258 C 
ATOM     16  O9  MOL A   1      11.326 -18.779 -10.427  1.00  0.00    -0.271 OA
BRANCH  15  17
ATOM     17 C10  MOL A   1      12.421 -18.177  -8.396  1.00  0.00     0.167 C 
BRANCH  17  18
ATOM     18 O11  MOL A   1      12.571 -18.997  -7.240  1.00  0.00    -0.480 OA
BRANCH  18  19
ATOM     19 C12  MOL A   1      13.785 -19.612  -6.919  1.00  0.00     0.166 A 
ATOM     20 C13  MOL A   1      14.816 -18.898  -6.266  1.00  0.00     0.012 A 
ATOM     21 C21  MOL A   1      15.988 -19.576  -5.892  1.00  0.00    -0.054 A 
ATOM     22 C22  MOL A   1      16.156 -20.925  -6.204  1.00  0.00    -0.058 A 
ATOM     23 C23  MOL A   1      15.158 -21.615  -6.893  1.00  0.00    -0.016 A 
ATOM     24 C24  MOL A   1      13.966 -20.962  -7.260  1.00  0.00     0.161 A 
BRANCH  20  25
ATOM     25 C14  MOL A   1      14.692 -17.422  -5.960  1.00  0.00     0.028 C 
BRANCH  25  26
ATOM     26 N15  MOL A   1      15.848 -16.683  -6.507  1.00  0.00    -0.287 NA
ATOM     27 C16  MOL A   1      15.768 -15.245  -6.197  1.00  0.00     0.064 C 
ATOM     28 C17  MOL A   1      15.599 -14.865  -7.654  1.00  0.00     0.272 C 
ATOM     29 F18  MOL A   1      16.669 -14.154  -8.171  1.00  0.00    -0.204 F 
ATOM     30 F19  MOL A   1      14.364 -14.311  -7.947  1.00  0.00    -0.204 F 
ATOM     31 C20  MOL A   1      15.673 -16.354  -7.932  1.00  0.00     0.064 C 
ENDBRANCH  25  26
ENDBRANCH  20  25
BRANCH  24  32
ATOM     32 O25  MOL A   1      12.940 -21.619  -7.954  1.00  0.00    -0.493 OA
ATOM     33 C26  MOL A   1      12.305 -22.814  -7.512  1.00  0.00     0.078 C 
ENDBRANCH  24  32
ENDBRANCH  18  19
ENDBRANCH  17  18
ENDBRANCH  15  17
ENDBRANCH   8  14
ENDBRANCH   1   8
TORSDOF 10
ENDMDL
MODEL 60
REMARK VINA RESULT:    -7.850      4.693      8.001
REMARK INTER + INTRA:         -13.488
REMARK INTER:                 -12.112
REMARK INTRA:                  -1.375
REMARK UNBOUND:                -1.048
REMARK  10 active torsions:
REMARK  status: ('A' for Active; 'I' for Inactive)
REMARK   1   A    between atoms:  C27_1   and   C6_8  
REMARK   2   A    between atoms:  C6_8    and   C5_9  
REMARK   3   A    between atoms:  C5_9    and   C3_12 
REMARK   4   A    between atoms:  C6_8    and   N7_14 
REMARK   5   A    between atoms:  C8_15   and  C10_17 
REMARK   6   A    between atoms: C10_17   and  O11_18 
REMARK   7   A    between atoms: O11_18   and  C12_19 
REMARK   8   A    between atoms: C13_20   and  C14_25 
REMARK   9   A    between atoms: C14_25   and  N15_26 
REMARK   10  A    between atoms: C24_24   and  O25_32 
ROOT
ATOM      1 C27  MOL A   1       5.116 -15.128 -10.238  1.00  0.00    -0.024 A 
ATOM      2 C28  MOL A   1       3.903 -14.790  -9.612  1.00  0.00    -0.057 A 
ATOM      3 C29  MOL A   1       3.003 -13.919 -10.236  1.00  0.00    -0.061 A 
ATOM      4 C30  MOL A   1       3.306 -13.378 -11.489  1.00  0.00    -0.048 A 
ATOM      5 C31  MOL A   1       4.508 -13.709 -12.124  1.00  0.00     0.018 A 
ATOM      6 Br32 MOL A   1       4.912 -12.985 -13.848  1.00  0.00    -0.051 Br
ATOM      7 C33  MOL A   1       5.412 -14.575 -11.500  1.00  0.00    -0.043 A 
ENDROOT
BRANCH   1   8
ATOM      8  C6  MOL A   1       6.115 -16.013  -9.524  1.00  0.00     0.063 C 
BRANCH   8   9
ATOM      9  C5  MOL A   1       7.257 -16.398 -10.482  1.00  0.00     0.051 C 
BRANCH   9  12
ATOM     10  C1  MOL A   1       9.939 -16.841  -7.692  1.00  0.00     0.006 C 
ATOM     11  N2  MOL A   1       8.787 -16.368  -8.446  1.00  0.00    -0.359 N 
ATOM     12  C3  MOL A   1       8.458 -16.900  -9.734  1.00  0.00     0.222 C 
ATOM     13  O4  MOL A   1       9.176 -17.800 -10.248  1.00  0.00    -0.275 OA
ENDBRANCH   9  12
ENDBRANCH   8   9
BRANCH   8  14
ATOM     14  N7  MOL A   1       5.451 -17.212  -9.003  1.00  0.00    -0.346 N 
ATOM     15  C8  MOL A   1       5.157 -17.387  -7.615  1.00  0.00     0.258 C 
ATOM     16  O9  MOL A   1       5.478 -16.499  -6.781  1.00  0.00    -0.271 OA
BRANCH  15  17
ATOM     17 C10  MOL A   1       4.452 -18.622  -7.139  1.00  0.00     0.167 C 
BRANCH  17  18
ATOM     18 O11  MOL A   1       5.214 -19.785  -7.455  1.00  0.00    -0.480 OA
BRANCH  18  19
ATOM     19 C12  MOL A   1       4.873 -20.630  -8.514  1.00  0.00     0.166 A 
ATOM     20 C13  MOL A   1       5.821 -20.988  -9.500  1.00  0.00     0.012 A 
ATOM     21 C21  MOL A   1       5.456 -21.903 -10.502  1.00  0.00    -0.054 A 
ATOM     22 C22  MOL A   1       4.160 -22.416 -10.554  1.00  0.00    -0.058 A 
ATOM     23 C23  MOL A   1       3.212 -22.022  -9.611  1.00  0.00    -0.016 A 
ATOM     24 C24  MOL A   1       3.559 -21.123  -8.586  1.00  0.00     0.161 A 
BRANCH  20  25
ATOM     25 C14  MOL A   1       7.220 -20.411  -9.506  1.00  0.00     0.028 C 
BRANCH  25  26
ATOM     26 N15  MOL A   1       8.127 -21.249  -8.696  1.00  0.00    -0.287 NA
ATOM     27 C16  MOL A   1       9.093 -20.431  -7.943  1.00  0.00     0.064 C 
ATOM     28 C17  MOL A   1      10.272 -20.969  -8.729  1.00  0.00     0.272 C 
ATOM     29 F18  MOL A   1      11.139 -21.738  -7.973  1.00  0.00    -0.204 F 
ATOM     30 F19  MOL A   1      10.904 -20.014  -9.510  1.00  0.00    -0.204 F 
ATOM     31 C20  MOL A   1       9.246 -21.785  -9.490  1.00  0.00     0.064 C 
ENDBRANCH  25  26
ENDBRANCH  20  25
BRANCH  24  32
ATOM     32 O25  MOL A   1       2.635 -20.701  -7.619  1.00  0.00    -0.493 OA
ATOM     33 C26  MOL A   1       1.257 -21.058  -7.612  1.00  0.00     0.078 C 
ENDBRANCH  24  32
ENDBRANCH  18  19
ENDBRANCH  17  18
ENDBRANCH  15  17
ENDBRANCH   8  14
ENDBRANCH   1   8
TORSDOF 10
ENDMDL
MODEL 61
REMARK VINA RESULT:    -7.849      6.086     10.565
REMARK INTER + INTRA:         -13.485
REMARK INTER:                 -12.404
REMARK INTRA:                  -1.081
REMARK UNBOUND:                -1.048
REMARK  10 active torsions:
REMARK  status: ('A' for Active; 'I' for Inactive)
REMARK   1   A    between atoms:  C27_1   and   C6_8  
REMARK   2   A    between atoms:  C6_8    and   C5_9  
REMARK   3   A    between atoms:  C5_9    and   C3_12 
REMARK   4   A    between atoms:  C6_8    and   N7_14 
REMARK   5   A    between atoms:  C8_15   and  C10_17 
REMARK   6   A    between atoms: C10_17   and  O11_18 
REMARK   7   A    between atoms: O11_18   and  C12_19 
REMARK   8   A    between atoms: C13_20   and  C14_25 
REMARK   9   A    between atoms: C14_25   and  N15_26 
REMARK   10  A    between atoms: C24_24   and  O25_32 
ROOT
ATOM      1 C27  MOL A   1       8.358 -17.800  -9.085  1.00  0.00    -0.024 A 
ATOM      2 C28  MOL A   1       8.234 -17.427 -10.436  1.00  0.00    -0.057 A 
ATOM      3 C29  MOL A   1       7.130 -16.684 -10.866  1.00  0.00    -0.061 A 
ATOM      4 C30  MOL A   1       6.140 -16.307  -9.955  1.00  0.00    -0.048 A 
ATOM      5 C31  MOL A   1       6.253 -16.669  -8.608  1.00  0.00     0.018 A 
ATOM      6 Br32 MOL A   1       4.908 -16.133  -7.356  1.00  0.00    -0.051 Br
ATOM      7 C33  MOL A   1       7.353 -17.416  -8.175  1.00  0.00    -0.043 A 
ENDROOT
BRANCH   1   8
ATOM      8  C6  MOL A   1       9.518 -18.664  -8.642  1.00  0.00     0.063 C 
BRANCH   8   9
ATOM      9  C5  MOL A   1       8.994 -19.954  -7.984  1.00  0.00     0.051 C 
BRANCH   9  12
ATOM     10  C1  MOL A   1       9.352 -22.278 -11.089  1.00  0.00     0.006 C 
ATOM     11  N2  MOL A   1       9.606 -21.253 -10.088  1.00  0.00    -0.359 N 
ATOM     12  C3  MOL A   1       8.699 -21.012  -9.007  1.00  0.00     0.222 C 
ATOM     13  O4  MOL A   1       7.642 -21.694  -8.905  1.00  0.00    -0.275 OA
ENDBRANCH   9  12
ENDBRANCH   8   9
BRANCH   8  14
ATOM     14  N7  MOL A   1      10.378 -17.924  -7.712  1.00  0.00    -0.346 N 
ATOM     15  C8  MOL A   1      11.654 -17.403  -8.093  1.00  0.00     0.258 C 
ATOM     16  O9  MOL A   1      12.088 -17.580  -9.262  1.00  0.00    -0.271 OA
BRANCH  15  17
ATOM     17 C10  MOL A   1      12.481 -16.631  -7.110  1.00  0.00     0.167 C 
BRANCH  17  18
ATOM     18 O11  MOL A   1      13.669 -17.348  -6.785  1.00  0.00    -0.480 OA
BRANCH  18  19
ATOM     19 C12  MOL A   1      14.928 -16.742  -6.796  1.00  0.00     0.166 A 
ATOM     20 C13  MOL A   1      15.380 -15.975  -5.697  1.00  0.00     0.012 A 
ATOM     21 C21  MOL A   1      16.682 -15.450  -5.717  1.00  0.00    -0.054 A 
ATOM     22 C22  MOL A   1      17.506 -15.640  -6.827  1.00  0.00    -0.058 A 
ATOM     23 C23  MOL A   1      17.040 -16.355  -7.931  1.00  0.00    -0.016 A 
ATOM     24 C24  MOL A   1      15.746 -16.907  -7.925  1.00  0.00     0.161 A 
BRANCH  20  25
ATOM     25 C14  MOL A   1      14.497 -15.702  -4.499  1.00  0.00     0.028 C 
BRANCH  25  26
ATOM     26 N15  MOL A   1      14.989 -14.527  -3.752  1.00  0.00    -0.287 NA
ATOM     27 C16  MOL A   1      15.668 -14.923  -2.507  1.00  0.00     0.064 C 
ATOM     28 C17  MOL A   1      14.607 -14.279  -1.637  1.00  0.00     0.272 C 
ATOM     29 F18  MOL A   1      15.064 -13.189  -0.917  1.00  0.00    -0.204 F 
ATOM     30 F19  MOL A   1      13.879 -15.184  -0.883  1.00  0.00    -0.204 F 
ATOM     31 C20  MOL A   1      13.931 -13.901  -2.941  1.00  0.00     0.064 C 
ENDBRANCH  25  26
ENDBRANCH  20  25
BRANCH  24  32
ATOM     32 O25  MOL A   1      15.240 -17.631  -9.015  1.00  0.00    -0.493 OA
ATOM     33 C26  MOL A   1      15.603 -18.971  -9.330  1.00  0.00     0.078 C 
ENDBRANCH  24  32
ENDBRANCH  18  19
ENDBRANCH  17  18
ENDBRANCH  15  17
ENDBRANCH   8  14
ENDBRANCH   1   8
TORSDOF 10
ENDMDL
MODEL 62
REMARK VINA RESULT:    -7.849      2.859      4.977
REMARK INTER + INTRA:         -13.485
REMARK INTER:                 -13.698
REMARK INTRA:                   0.213
REMARK UNBOUND:                -1.048
REMARK  10 active torsions:
REMARK  status: ('A' for Active; 'I' for Inactive)
REMARK   1   A    between atoms:  C27_1   and   C6_8  
REMARK   2   A    between atoms:  C6_8    and   C5_9  
REMARK   3   A    between atoms:  C5_9    and   C3_12 
REMARK   4   A    between atoms:  C6_8    and   N7_14 
REMARK   5   A    between atoms:  C8_15   and  C10_17 
REMARK   6   A    between atoms: C10_17   and  O11_18 
REMARK   7   A    between atoms: O11_18   and  C12_19 
REMARK   8   A    between atoms: C13_20   and  C14_25 
REMARK   9   A    between atoms: C14_25   and  N15_26 
REMARK   10  A    between atoms: C24_24   and  O25_32 
ROOT
ATOM      1 C27  MOL A   1       4.549 -21.490  -8.733  1.00  0.00    -0.024 A 
ATOM      2 C28  MOL A   1       4.424 -21.637  -7.339  1.00  0.00    -0.057 A 
ATOM      3 C29  MOL A   1       3.245 -22.149  -6.786  1.00  0.00    -0.061 A 
ATOM      4 C30  MOL A   1       2.183 -22.519  -7.615  1.00  0.00    -0.048 A 
ATOM      5 C31  MOL A   1       2.297 -22.381  -9.003  1.00  0.00     0.018 A 
ATOM      6 Br32 MOL A   1       0.851 -22.908 -10.140  1.00  0.00    -0.051 Br
ATOM      7 C33  MOL A   1       3.471 -21.864  -9.560  1.00  0.00    -0.043 A 
ENDROOT
BRANCH   1   8
ATOM      8  C6  MOL A   1       5.798 -20.867  -9.318  1.00  0.00     0.063 C 
BRANCH   8   9
ATOM      9  C5  MOL A   1       7.050 -21.496  -8.681  1.00  0.00     0.051 C 
BRANCH   9  12
ATOM     10  C1  MOL A   1       9.791 -23.720 -10.328  1.00  0.00     0.006 C 
ATOM     11  N2  MOL A   1       9.106 -22.795  -9.436  1.00  0.00    -0.359 N 
ATOM     12  C3  MOL A   1       7.731 -22.445  -9.624  1.00  0.00     0.222 C 
ATOM     13  O4  MOL A   1       7.079 -22.936 -10.585  1.00  0.00    -0.275 OA
ENDBRANCH   9  12
ENDBRANCH   8   9
BRANCH   8  14
ATOM     14  N7  MOL A   1       5.787 -19.415  -9.111  1.00  0.00    -0.346 N 
ATOM     15  C8  MOL A   1       6.815 -18.733  -8.389  1.00  0.00     0.258 C 
ATOM     16  O9  MOL A   1       7.776 -19.378  -7.891  1.00  0.00    -0.271 OA
BRANCH  15  17
ATOM     17 C10  MOL A   1       6.769 -17.243  -8.229  1.00  0.00     0.167 C 
BRANCH  17  18
ATOM     18 O11  MOL A   1       7.585 -16.610  -9.212  1.00  0.00    -0.480 OA
BRANCH  18  19
ATOM     19 C12  MOL A   1       7.394 -16.819 -10.580  1.00  0.00     0.166 A 
ATOM     20 C13  MOL A   1       6.404 -16.108 -11.297  1.00  0.00     0.012 A 
ATOM     21 C21  MOL A   1       6.300 -16.291 -12.686  1.00  0.00    -0.054 A 
ATOM     22 C22  MOL A   1       7.130 -17.199 -13.345  1.00  0.00    -0.058 A 
ATOM     23 C23  MOL A   1       8.072 -17.936 -12.628  1.00  0.00    -0.016 A 
ATOM     24 C24  MOL A   1       8.208 -17.755 -11.239  1.00  0.00     0.161 A 
BRANCH  20  25
ATOM     25 C14  MOL A   1       5.451 -15.156 -10.609  1.00  0.00     0.028 C 
BRANCH  25  26
ATOM     26 N15  MOL A   1       4.311 -14.839 -11.493  1.00  0.00    -0.287 NA
ATOM     27 C16  MOL A   1       4.450 -13.505 -12.100  1.00  0.00     0.064 C 
ATOM     28 C17  MOL A   1       3.249 -12.959 -11.354  1.00  0.00     0.272 C 
ATOM     29 F18  MOL A   1       2.182 -12.639 -12.176  1.00  0.00    -0.204 F 
ATOM     30 F19  MOL A   1       3.565 -11.971 -10.435  1.00  0.00    -0.204 F 
ATOM     31 C20  MOL A   1       3.146 -14.341 -10.740  1.00  0.00     0.064 C 
ENDBRANCH  25  26
ENDBRANCH  20  25
BRANCH  24  32
ATOM     32 O25  MOL A   1       9.142 -18.477 -10.481  1.00  0.00    -0.493 OA
ATOM     33 C26  MOL A   1       9.923 -19.557 -10.981  1.00  0.00     0.078 C 
ENDBRANCH  24  32
ENDBRANCH  18  19
ENDBRANCH  17  18
ENDBRANCH  15  17
ENDBRANCH   8  14
ENDBRANCH   1   8
TORSDOF 10
ENDMDL
MODEL 63
REMARK VINA RESULT:    -7.843      5.191      9.835
REMARK INTER + INTRA:         -13.477
REMARK INTER:                 -12.155
REMARK INTRA:                  -1.322
REMARK UNBOUND:                -1.048
REMARK  10 active torsions:
REMARK  status: ('A' for Active; 'I' for Inactive)
REMARK   1   A    between atoms:  C27_1   and   C6_8  
REMARK   2   A    between atoms:  C6_8    and   C5_9  
REMARK   3   A    between atoms:  C5_9    and   C3_12 
REMARK   4   A    between atoms:  C6_8    and   N7_14 
REMARK   5   A    between atoms:  C8_15   and  C10_17 
REMARK   6   A    between atoms: C10_17   and  O11_18 
REMARK   7   A    between atoms: O11_18   and  C12_19 
REMARK   8   A    between atoms: C13_20   and  C14_25 
REMARK   9   A    between atoms: C14_25   and  N15_26 
REMARK   10  A    between atoms: C24_24   and  O25_32 
ROOT
ATOM      1 C27  MOL A   1       7.017 -18.602  -8.619  1.00  0.00    -0.024 A 
ATOM      2 C28  MOL A   1       6.322 -19.818  -8.492  1.00  0.00    -0.057 A 
ATOM      3 C29  MOL A   1       5.089 -19.863  -7.832  1.00  0.00    -0.061 A 
ATOM      4 C30  MOL A   1       4.539 -18.696  -7.292  1.00  0.00    -0.048 A 
ATOM      5 C31  MOL A   1       5.219 -17.479  -7.414  1.00  0.00     0.018 A 
ATOM      6 Br32 MOL A   1       4.456 -15.879  -6.695  1.00  0.00    -0.051 Br
ATOM      7 C33  MOL A   1       6.454 -17.432  -8.069  1.00  0.00    -0.043 A 
ENDROOT
BRANCH   1   8
ATOM      8  C6  MOL A   1       8.383 -18.575  -9.270  1.00  0.00     0.063 C 
BRANCH   8   9
ATOM      9  C5  MOL A   1       8.336 -19.305 -10.624  1.00  0.00     0.051 C 
BRANCH   9  12
ATOM     10  C1  MOL A   1       6.611 -16.726 -12.979  1.00  0.00     0.006 C 
ATOM     11  N2  MOL A   1       6.857 -17.667 -11.896  1.00  0.00    -0.359 N 
ATOM     12  C3  MOL A   1       8.109 -18.348 -11.758  1.00  0.00     0.222 C 
ATOM     13  O4  MOL A   1       9.035 -18.144 -12.590  1.00  0.00    -0.275 OA
ENDBRANCH   9  12
ENDBRANCH   8   9
BRANCH   8  14
ATOM     14  N7  MOL A   1       9.380 -19.189  -8.386  1.00  0.00    -0.346 N 
ATOM     15  C8  MOL A   1      10.727 -18.720  -8.302  1.00  0.00     0.258 C 
ATOM     16  O9  MOL A   1      11.106 -17.749  -9.010  1.00  0.00    -0.271 OA
BRANCH  15  17
ATOM     17 C10  MOL A   1      11.699 -19.368  -7.362  1.00  0.00     0.167 C 
BRANCH  17  18
ATOM     18 O11  MOL A   1      12.887 -19.743  -8.054  1.00  0.00    -0.480 OA
BRANCH  18  19
ATOM     19 C12  MOL A   1      14.077 -20.033  -7.381  1.00  0.00     0.166 A 
ATOM     20 C13  MOL A   1      15.044 -19.030  -7.140  1.00  0.00     0.012 A 
ATOM     21 C21  MOL A   1      16.189 -19.348  -6.390  1.00  0.00    -0.054 A 
ATOM     22 C22  MOL A   1      16.394 -20.648  -5.929  1.00  0.00    -0.058 A 
ATOM     23 C23  MOL A   1      15.463 -21.648  -6.210  1.00  0.00    -0.016 A 
ATOM     24 C24  MOL A   1      14.299 -21.349  -6.942  1.00  0.00     0.161 A 
BRANCH  20  25
ATOM     25 C14  MOL A   1      14.881 -17.623  -7.670  1.00  0.00     0.028 C 
BRANCH  25  26
ATOM     26 N15  MOL A   1      14.466 -16.709  -6.587  1.00  0.00    -0.287 NA
ATOM     27 C16  MOL A   1      13.338 -15.857  -7.000  1.00  0.00     0.064 C 
ATOM     28 C17  MOL A   1      14.172 -14.593  -6.930  1.00  0.00     0.272 C 
ATOM     29 F18  MOL A   1      13.777 -13.720  -5.931  1.00  0.00    -0.204 F 
ATOM     30 F19  MOL A   1      14.368 -13.986  -8.160  1.00  0.00    -0.204 F 
ATOM     31 C20  MOL A   1      15.312 -15.505  -6.520  1.00  0.00     0.064 C 
ENDBRANCH  25  26
ENDBRANCH  20  25
BRANCH  24  32
ATOM     32 O25  MOL A   1      13.339 -22.325  -7.247  1.00  0.00    -0.493 OA
ATOM     33 C26  MOL A   1      12.851 -23.291  -6.323  1.00  0.00     0.078 C 
ENDBRANCH  24  32
ENDBRANCH  18  19
ENDBRANCH  17  18
ENDBRANCH  15  17
ENDBRANCH   8  14
ENDBRANCH   1   8
TORSDOF 10
ENDMDL
MODEL 64
REMARK VINA RESULT:    -7.834      4.829      9.487
REMARK INTER + INTRA:         -13.462
REMARK INTER:                 -12.516
REMARK INTRA:                  -0.945
REMARK UNBOUND:                -1.048
REMARK  10 active torsions:
REMARK  status: ('A' for Active; 'I' for Inactive)
REMARK   1   A    between atoms:  C27_1   and   C6_8  
REMARK   2   A    between atoms:  C6_8    and   C5_9  
REMARK   3   A    between atoms:  C5_9    and   C3_12 
REMARK   4   A    between atoms:  C6_8    and   N7_14 
REMARK   5   A    between atoms:  C8_15   and  C10_17 
REMARK   6   A    between atoms: C10_17   and  O11_18 
REMARK   7   A    between atoms: O11_18   and  C12_19 
REMARK   8   A    between atoms: C13_20   and  C14_25 
REMARK   9   A    between atoms: C14_25   and  N15_26 
REMARK   10  A    between atoms: C24_24   and  O25_32 
ROOT
ATOM      1 C27  MOL A   1       6.692 -17.792  -9.027  1.00  0.00    -0.024 A 
ATOM      2 C28  MOL A   1       5.955 -16.904  -8.222  1.00  0.00    -0.057 A 
ATOM      3 C29  MOL A   1       5.002 -17.390  -7.321  1.00  0.00    -0.061 A 
ATOM      4 C30  MOL A   1       4.775 -18.765  -7.215  1.00  0.00    -0.048 A 
ATOM      5 C31  MOL A   1       5.503 -19.659  -8.007  1.00  0.00     0.018 A 
ATOM      6 Br32 MOL A   1       5.206 -21.542  -7.845  1.00  0.00    -0.051 Br
ATOM      7 C33  MOL A   1       6.453 -19.177  -8.913  1.00  0.00    -0.043 A 
ENDROOT
BRANCH   1   8
ATOM      8  C6  MOL A   1       7.669 -17.254 -10.050  1.00  0.00     0.063 C 
BRANCH   8   9
ATOM      9  C5  MOL A   1       7.267 -17.724 -11.460  1.00  0.00     0.051 C 
BRANCH   9  12
ATOM     10  C1  MOL A   1       5.292 -14.477 -12.314  1.00  0.00     0.006 C 
ATOM     11  N2  MOL A   1       5.916 -15.568 -11.580  1.00  0.00    -0.359 N 
ATOM     12  C3  MOL A   1       6.625 -16.618 -12.247  1.00  0.00     0.222 C 
ATOM     13  O4  MOL A   1       6.718 -16.619 -13.505  1.00  0.00    -0.275 OA
ENDBRANCH   9  12
ENDBRANCH   8   9
BRANCH   8  14
ATOM     14  N7  MOL A   1       9.032 -17.690  -9.729  1.00  0.00    -0.346 N 
ATOM     15  C8  MOL A   1       9.783 -17.134  -8.648  1.00  0.00     0.258 C 
ATOM     16  O9  MOL A   1       9.286 -16.226  -7.931  1.00  0.00    -0.271 OA
BRANCH  15  17
ATOM     17 C10  MOL A   1      11.164 -17.635  -8.347  1.00  0.00     0.167 C 
BRANCH  17  18
ATOM     18 O11  MOL A   1      11.115 -18.684  -7.384  1.00  0.00    -0.480 OA
BRANCH  18  19
ATOM     19 C12  MOL A   1      12.063 -19.711  -7.357  1.00  0.00     0.166 A 
ATOM     20 C13  MOL A   1      13.401 -19.461  -6.978  1.00  0.00     0.012 A 
ATOM     21 C21  MOL A   1      14.301 -20.537  -6.889  1.00  0.00    -0.054 A 
ATOM     22 C22  MOL A   1      13.893 -21.830  -7.217  1.00  0.00    -0.058 A 
ATOM     23 C23  MOL A   1      12.585 -22.066  -7.639  1.00  0.00    -0.016 A 
ATOM     24 C24  MOL A   1      11.660 -21.008  -7.717  1.00  0.00     0.161 A 
BRANCH  20  25
ATOM     25 C14  MOL A   1      13.894 -18.065  -6.667  1.00  0.00     0.028 C 
BRANCH  25  26
ATOM     26 N15  MOL A   1      14.648 -17.517  -7.813  1.00  0.00    -0.287 NA
ATOM     27 C16  MOL A   1      16.063 -17.292  -7.472  1.00  0.00     0.064 C 
ATOM     28 C17  MOL A   1      15.933 -15.788  -7.610  1.00  0.00     0.272 C 
ATOM     29 F18  MOL A   1      16.654 -15.263  -8.668  1.00  0.00    -0.204 F 
ATOM     30 F19  MOL A   1      16.106 -15.102  -6.418  1.00  0.00    -0.204 F 
ATOM     31 C20  MOL A   1      14.479 -16.059  -7.943  1.00  0.00     0.064 C 
ENDBRANCH  25  26
ENDBRANCH  20  25
BRANCH  24  32
ATOM     32 O25  MOL A   1      10.337 -21.203  -8.137  1.00  0.00    -0.493 OA
ATOM     33 C26  MOL A   1       9.868 -20.965  -9.460  1.00  0.00     0.078 C 
ENDBRANCH  24  32
ENDBRANCH  18  19
ENDBRANCH  17  18
ENDBRANCH  15  17
ENDBRANCH   8  14
ENDBRANCH   1   8
TORSDOF 10
ENDMDL
MODEL 65
REMARK VINA RESULT:    -7.825      4.528      9.611
REMARK INTER + INTRA:         -13.448
REMARK INTER:                 -12.254
REMARK INTRA:                  -1.193
REMARK UNBOUND:                -1.048
REMARK  10 active torsions:
REMARK  status: ('A' for Active; 'I' for Inactive)
REMARK   1   A    between atoms:  C27_1   and   C6_8  
REMARK   2   A    between atoms:  C6_8    and   C5_9  
REMARK   3   A    between atoms:  C5_9    and   C3_12 
REMARK   4   A    between atoms:  C6_8    and   N7_14 
REMARK   5   A    between atoms:  C8_15   and  C10_17 
REMARK   6   A    between atoms: C10_17   and  O11_18 
REMARK   7   A    between atoms: O11_18   and  C12_19 
REMARK   8   A    between atoms: C13_20   and  C14_25 
REMARK   9   A    between atoms: C14_25   and  N15_26 
REMARK   10  A    between atoms: C24_24   and  O25_32 
ROOT
ATOM      1 C27  MOL A   1       7.199 -19.888  -9.705  1.00  0.00    -0.024 A 
ATOM      2 C28  MOL A   1       7.340 -20.858 -10.715  1.00  0.00    -0.057 A 
ATOM      3 C29  MOL A   1       6.402 -21.888 -10.841  1.00  0.00    -0.061 A 
ATOM      4 C30  MOL A   1       5.317 -21.961  -9.963  1.00  0.00    -0.048 A 
ATOM      5 C31  MOL A   1       5.164 -21.000  -8.957  1.00  0.00     0.018 A 
ATOM      6 Br32 MOL A   1       3.666 -21.088  -7.769  1.00  0.00    -0.051 Br
ATOM      7 C33  MOL A   1       6.102 -19.972  -8.824  1.00  0.00    -0.043 A 
ENDROOT
BRANCH   1   8
ATOM      8  C6  MOL A   1       8.257 -18.819  -9.529  1.00  0.00     0.063 C 
BRANCH   8   9
ATOM      9  C5  MOL A   1       8.266 -17.881 -10.750  1.00  0.00     0.051 C 
BRANCH   9  12
ATOM     10  C1  MOL A   1       5.601 -15.180 -11.628  1.00  0.00     0.006 C 
ATOM     11  N2  MOL A   1       6.583 -16.248 -11.743  1.00  0.00    -0.359 N 
ATOM     12  C3  MOL A   1       7.266 -16.772 -10.599  1.00  0.00     0.222 C 
ATOM     13  O4  MOL A   1       7.027 -16.305  -9.452  1.00  0.00    -0.275 OA
ENDBRANCH   9  12
ENDBRANCH   8   9
BRANCH   8  14
ATOM     14  N7  MOL A   1       9.575 -19.435  -9.341  1.00  0.00    -0.346 N 
ATOM     15  C8  MOL A   1      10.690 -18.717  -8.809  1.00  0.00     0.258 C 
ATOM     16  O9  MOL A   1      10.571 -17.504  -8.489  1.00  0.00    -0.271 OA
BRANCH  15  17
ATOM     17 C10  MOL A   1      12.009 -19.402  -8.612  1.00  0.00     0.167 C 
BRANCH  17  18
ATOM     18 O11  MOL A   1      12.378 -19.389  -7.235  1.00  0.00    -0.480 OA
BRANCH  18  19
ATOM     19 C12  MOL A   1      13.622 -19.850  -6.796  1.00  0.00     0.166 A 
ATOM     20 C13  MOL A   1      14.755 -19.004  -6.791  1.00  0.00     0.012 A 
ATOM     21 C21  MOL A   1      15.967 -19.485  -6.268  1.00  0.00    -0.054 A 
ATOM     22 C22  MOL A   1      16.066 -20.796  -5.803  1.00  0.00    -0.058 A 
ATOM     23 C23  MOL A   1      14.960 -21.645  -5.855  1.00  0.00    -0.016 A 
ATOM     24 C24  MOL A   1      13.730 -21.179  -6.357  1.00  0.00     0.161 A 
BRANCH  20  25
ATOM     25 C14  MOL A   1      14.699 -17.594  -7.336  1.00  0.00     0.028 C 
BRANCH  25  26
ATOM     26 N15  MOL A   1      14.256 -16.653  -6.286  1.00  0.00    -0.287 NA
ATOM     27 C16  MOL A   1      13.205 -15.747  -6.780  1.00  0.00     0.064 C 
ATOM     28 C17  MOL A   1      14.096 -14.527  -6.655  1.00  0.00     0.272 C 
ATOM     29 F18  MOL A   1      13.678 -13.629  -5.689  1.00  0.00    -0.204 F 
ATOM     30 F19  MOL A   1      14.409 -13.939  -7.870  1.00  0.00    -0.204 F 
ATOM     31 C20  MOL A   1      15.157 -15.493  -6.164  1.00  0.00     0.064 C 
ENDBRANCH  25  26
ENDBRANCH  20  25
BRANCH  24  32
ATOM     32 O25  MOL A   1      12.596 -22.000  -6.428  1.00  0.00    -0.493 OA
ATOM     33 C26  MOL A   1      12.627 -23.423  -6.392  1.00  0.00     0.078 C 
ENDBRANCH  24  32
ENDBRANCH  18  19
ENDBRANCH  17  18
ENDBRANCH  15  17
ENDBRANCH   8  14
ENDBRANCH   1   8
TORSDOF 10
ENDMDL
MODEL 66
REMARK VINA RESULT:    -7.822      2.151      3.516
REMARK INTER + INTRA:         -13.442
REMARK INTER:                 -13.429
REMARK INTRA:                  -0.014
REMARK UNBOUND:                -1.048
REMARK  10 active torsions:
REMARK  status: ('A' for Active; 'I' for Inactive)
REMARK   1   A    between atoms:  C27_1   and   C6_8  
REMARK   2   A    between atoms:  C6_8    and   C5_9  
REMARK   3   A    between atoms:  C5_9    and   C3_12 
REMARK   4   A    between atoms:  C6_8    and   N7_14 
REMARK   5   A    between atoms:  C8_15   and  C10_17 
REMARK   6   A    between atoms: C10_17   and  O11_18 
REMARK   7   A    between atoms: O11_18   and  C12_19 
REMARK   8   A    between atoms: C13_20   and  C14_25 
REMARK   9   A    between atoms: C14_25   and  N15_26 
REMARK   10  A    between atoms: C24_24   and  O25_32 
ROOT
ATOM      1 C27  MOL A   1       9.011 -18.329  -9.130  1.00  0.00    -0.024 A 
ATOM      2 C28  MOL A   1       9.773 -18.832 -10.200  1.00  0.00    -0.057 A 
ATOM      3 C29  MOL A   1      11.149 -18.586 -10.266  1.00  0.00    -0.061 A 
ATOM      4 C30  MOL A   1      11.776 -17.836  -9.268  1.00  0.00    -0.048 A 
ATOM      5 C31  MOL A   1      11.030 -17.332  -8.196  1.00  0.00     0.018 A 
ATOM      6 Br32 MOL A   1      11.893 -16.323  -6.819  1.00  0.00    -0.051 Br
ATOM      7 C33  MOL A   1       9.654 -17.571  -8.129  1.00  0.00    -0.043 A 
ENDROOT
BRANCH   1   8
ATOM      8  C6  MOL A   1       7.512 -18.538  -9.103  1.00  0.00     0.063 C 
BRANCH   8   9
ATOM      9  C5  MOL A   1       7.122 -19.680 -10.058  1.00  0.00     0.051 C 
BRANCH   9  12
ATOM     10  C1  MOL A   1       4.957 -21.478  -7.365  1.00  0.00     0.006 C 
ATOM     11  N2  MOL A   1       5.915 -20.590  -8.009  1.00  0.00    -0.359 N 
ATOM     12  C3  MOL A   1       6.134 -20.616  -9.423  1.00  0.00     0.222 C 
ATOM     13  O4  MOL A   1       5.494 -21.425 -10.148  1.00  0.00    -0.275 OA
ENDBRANCH   9  12
ENDBRANCH   8   9
BRANCH   8  14
ATOM     14  N7  MOL A   1       6.820 -17.298  -9.472  1.00  0.00    -0.346 N 
ATOM     15  C8  MOL A   1       6.613 -16.907 -10.831  1.00  0.00     0.258 C 
ATOM     16  O9  MOL A   1       7.040 -17.628 -11.771  1.00  0.00    -0.271 OA
BRANCH  15  17
ATOM     17 C10  MOL A   1       5.876 -15.642 -11.152  1.00  0.00     0.167 C 
BRANCH  17  18
ATOM     18 O11  MOL A   1       5.484 -14.974  -9.954  1.00  0.00    -0.480 OA
BRANCH  18  19
ATOM     19 C12  MOL A   1       4.142 -14.782  -9.618  1.00  0.00     0.166 A 
ATOM     20 C13  MOL A   1       3.230 -14.218 -10.539  1.00  0.00     0.012 A 
ATOM     21 C21  MOL A   1       1.874 -14.117 -10.187  1.00  0.00    -0.054 A 
ATOM     22 C22  MOL A   1       1.438 -14.522  -8.925  1.00  0.00    -0.058 A 
ATOM     23 C23  MOL A   1       2.348 -15.031  -7.999  1.00  0.00    -0.016 A 
ATOM     24 C24  MOL A   1       3.708 -15.161  -8.337  1.00  0.00     0.161 A 
BRANCH  20  25
ATOM     25 C14  MOL A   1       3.675 -13.719 -11.896  1.00  0.00     0.028 C 
BRANCH  25  26
ATOM     26 N15  MOL A   1       4.164 -12.329 -11.799  1.00  0.00    -0.287 NA
ATOM     27 C16  MOL A   1       3.192 -11.459 -11.115  1.00  0.00     0.064 C 
ATOM     28 C17  MOL A   1       2.929 -10.645 -12.366  1.00  0.00     0.272 C 
ATOM     29 F18  MOL A   1       3.365  -9.334 -12.277  1.00  0.00    -0.204 F 
ATOM     30 F19  MOL A   1       1.640 -10.775 -12.856  1.00  0.00    -0.204 F 
ATOM     31 C20  MOL A   1       3.926 -11.568 -13.038  1.00  0.00     0.064 C 
ENDBRANCH  25  26
ENDBRANCH  20  25
BRANCH  24  32
ATOM     32 O25  MOL A   1       4.655 -15.667  -7.434  1.00  0.00    -0.493 OA
ATOM     33 C26  MOL A   1       4.600 -16.966  -6.852  1.00  0.00     0.078 C 
ENDBRANCH  24  32
ENDBRANCH  18  19
ENDBRANCH  17  18
ENDBRANCH  15  17
ENDBRANCH   8  14
ENDBRANCH   1   8
TORSDOF 10
ENDMDL
MODEL 67
REMARK VINA RESULT:    -7.816      4.989      8.234
REMARK INTER + INTRA:         -13.434
REMARK INTER:                 -12.536
REMARK INTRA:                  -0.898
REMARK UNBOUND:                -1.048
REMARK  10 active torsions:
REMARK  status: ('A' for Active; 'I' for Inactive)
REMARK   1   A    between atoms:  C27_1   and   C6_8  
REMARK   2   A    between atoms:  C6_8    and   C5_9  
REMARK   3   A    between atoms:  C5_9    and   C3_12 
REMARK   4   A    between atoms:  C6_8    and   N7_14 
REMARK   5   A    between atoms:  C8_15   and  C10_17 
REMARK   6   A    between atoms: C10_17   and  O11_18 
REMARK   7   A    between atoms: O11_18   and  C12_19 
REMARK   8   A    between atoms: C13_20   and  C14_25 
REMARK   9   A    between atoms: C14_25   and  N15_26 
REMARK   10  A    between atoms: C24_24   and  O25_32 
ROOT
ATOM      1 C27  MOL A   1       5.263 -15.278 -10.111  1.00  0.00    -0.024 A 
ATOM      2 C28  MOL A   1       4.044 -14.932  -9.501  1.00  0.00    -0.057 A 
ATOM      3 C29  MOL A   1       3.157 -14.057 -10.138  1.00  0.00    -0.061 A 
ATOM      4 C30  MOL A   1       3.478 -13.520 -11.387  1.00  0.00    -0.048 A 
ATOM      5 C31  MOL A   1       4.687 -13.858 -12.007  1.00  0.00     0.018 A 
ATOM      6 Br32 MOL A   1       5.115 -13.139 -13.727  1.00  0.00    -0.051 Br
ATOM      7 C33  MOL A   1       5.578 -14.728 -11.371  1.00  0.00    -0.043 A 
ENDROOT
BRANCH   1   8
ATOM      8  C6  MOL A   1       6.249 -16.167  -9.384  1.00  0.00     0.063 C 
BRANCH   8   9
ATOM      9  C5  MOL A   1       7.440 -16.496 -10.302  1.00  0.00     0.051 C 
BRANCH   9  12
ATOM     10  C1  MOL A   1      10.463 -18.753  -9.334  1.00  0.00     0.006 C 
ATOM     11  N2  MOL A   1       9.339 -18.175 -10.056  1.00  0.00    -0.359 N 
ATOM     12  C3  MOL A   1       8.587 -17.077  -9.528  1.00  0.00     0.222 C 
ATOM     13  O4  MOL A   1       8.888 -16.587  -8.405  1.00  0.00    -0.275 OA
ENDBRANCH   9  12
ENDBRANCH   8   9
BRANCH   8  14
ATOM     14  N7  MOL A   1       5.588 -17.397  -8.934  1.00  0.00    -0.346 N 
ATOM     15  C8  MOL A   1       5.133 -17.579  -7.592  1.00  0.00     0.258 C 
ATOM     16  O9  MOL A   1       5.300 -16.670  -6.735  1.00  0.00    -0.271 OA
BRANCH  15  17
ATOM     17 C10  MOL A   1       4.439 -18.846  -7.191  1.00  0.00     0.167 C 
BRANCH  17  18
ATOM     18 O11  MOL A   1       5.145 -19.980  -7.690  1.00  0.00    -0.480 OA
BRANCH  18  19
ATOM     19 C12  MOL A   1       4.601 -20.825  -8.661  1.00  0.00     0.166 A 
ATOM     20 C13  MOL A   1       5.412 -21.408  -9.661  1.00  0.00     0.012 A 
ATOM     21 C21  MOL A   1       4.837 -22.313 -10.568  1.00  0.00    -0.054 A 
ATOM     22 C22  MOL A   1       3.473 -22.597 -10.516  1.00  0.00    -0.058 A 
ATOM     23 C23  MOL A   1       2.664 -21.982  -9.561  1.00  0.00    -0.016 A 
ATOM     24 C24  MOL A   1       3.221 -21.087  -8.628  1.00  0.00     0.161 A 
BRANCH  20  25
ATOM     25 C14  MOL A   1       6.885 -21.083  -9.781  1.00  0.00     0.028 C 
BRANCH  25  26
ATOM     26 N15  MOL A   1       7.605 -22.190 -10.443  1.00  0.00    -0.287 NA
ATOM     27 C16  MOL A   1       8.244 -23.084  -9.463  1.00  0.00     0.064 C 
ATOM     28 C17  MOL A   1       9.640 -22.703  -9.917  1.00  0.00     0.272 C 
ATOM     29 F18  MOL A   1      10.330 -23.740 -10.520  1.00  0.00    -0.204 F 
ATOM     30 F19  MOL A   1      10.373 -22.024  -8.957  1.00  0.00    -0.204 F 
ATOM     31 C20  MOL A   1       8.944 -21.786 -10.903  1.00  0.00     0.064 C 
ENDBRANCH  25  26
ENDBRANCH  20  25
BRANCH  24  32
ATOM     32 O25  MOL A   1       2.444 -20.447  -7.652  1.00  0.00    -0.493 OA
ATOM     33 C26  MOL A   1       1.021 -20.476  -7.609  1.00  0.00     0.078 C 
ENDBRANCH  24  32
ENDBRANCH  18  19
ENDBRANCH  17  18
ENDBRANCH  15  17
ENDBRANCH   8  14
ENDBRANCH   1   8
TORSDOF 10
ENDMDL
MODEL 68
REMARK VINA RESULT:    -7.812      5.837     10.595
REMARK INTER + INTRA:         -13.428
REMARK INTER:                 -11.924
REMARK INTRA:                  -1.504
REMARK UNBOUND:                -1.048
REMARK  10 active torsions:
REMARK  status: ('A' for Active; 'I' for Inactive)
REMARK   1   A    between atoms:  C27_1   and   C6_8  
REMARK   2   A    between atoms:  C6_8    and   C5_9  
REMARK   3   A    between atoms:  C5_9    and   C3_12 
REMARK   4   A    between atoms:  C6_8    and   N7_14 
REMARK   5   A    between atoms:  C8_15   and  C10_17 
REMARK   6   A    between atoms: C10_17   and  O11_18 
REMARK   7   A    between atoms: O11_18   and  C12_19 
REMARK   8   A    between atoms: C13_20   and  C14_25 
REMARK   9   A    between atoms: C14_25   and  N15_26 
REMARK   10  A    between atoms: C24_24   and  O25_32 
ROOT
ATOM      1 C27  MOL A   1       8.078 -17.840  -9.272  1.00  0.00    -0.024 A 
ATOM      2 C28  MOL A   1       7.922 -17.199 -10.515  1.00  0.00    -0.057 A 
ATOM      3 C29  MOL A   1       6.861 -16.312 -10.725  1.00  0.00    -0.061 A 
ATOM      4 C30  MOL A   1       5.947 -16.056  -9.699  1.00  0.00    -0.048 A 
ATOM      5 C31  MOL A   1       6.092 -16.685  -8.457  1.00  0.00     0.018 A 
ATOM      6 Br32 MOL A   1       4.853 -16.318  -7.047  1.00  0.00    -0.051 Br
ATOM      7 C33  MOL A   1       7.149 -17.577  -8.245  1.00  0.00    -0.043 A 
ENDROOT
BRANCH   1   8
ATOM      8  C6  MOL A   1       9.185 -18.853  -9.076  1.00  0.00     0.063 C 
BRANCH   8   9
ATOM      9  C5  MOL A   1       8.616 -20.144  -8.460  1.00  0.00     0.051 C 
BRANCH   9  12
ATOM     10  C1  MOL A   1       5.808 -21.958 -10.459  1.00  0.00     0.006 C 
ATOM     11  N2  MOL A   1       6.506 -21.153  -9.466  1.00  0.00    -0.359 N 
ATOM     12  C3  MOL A   1       7.927 -20.989  -9.492  1.00  0.00     0.222 C 
ATOM     13  O4  MOL A   1       8.613 -21.555 -10.387  1.00  0.00    -0.275 OA
ENDBRANCH   9  12
ENDBRANCH   8   9
BRANCH   8  14
ATOM     14  N7  MOL A   1      10.240 -18.295  -8.223  1.00  0.00    -0.346 N 
ATOM     15  C8  MOL A   1      11.540 -17.970  -8.720  1.00  0.00     0.258 C 
ATOM     16  O9  MOL A   1      11.825 -18.168  -9.931  1.00  0.00    -0.271 OA
BRANCH  15  17
ATOM     17 C10  MOL A   1      12.573 -17.377  -7.810  1.00  0.00     0.167 C 
BRANCH  17  18
ATOM     18 O11  MOL A   1      13.553 -16.666  -8.563  1.00  0.00    -0.480 OA
BRANCH  18  19
ATOM     19 C12  MOL A   1      14.850 -16.461  -8.086  1.00  0.00     0.166 A 
ATOM     20 C13  MOL A   1      15.885 -17.384  -8.364  1.00  0.00     0.012 A 
ATOM     21 C21  MOL A   1      17.191 -17.098  -7.932  1.00  0.00    -0.054 A 
ATOM     22 C22  MOL A   1      17.457 -15.944  -7.196  1.00  0.00    -0.058 A 
ATOM     23 C23  MOL A   1      16.425 -15.060  -6.880  1.00  0.00    -0.016 A 
ATOM     24 C24  MOL A   1      15.112 -15.314  -7.319  1.00  0.00     0.161 A 
BRANCH  20  25
ATOM     25 C14  MOL A   1      15.624 -18.672  -9.112  1.00  0.00     0.028 C 
BRANCH  25  26
ATOM     26 N15  MOL A   1      15.947 -19.837  -8.263  1.00  0.00    -0.287 NA
ATOM     27 C16  MOL A   1      15.388 -21.082  -8.816  1.00  0.00     0.064 C 
ATOM     28 C17  MOL A   1      14.433 -21.257  -7.652  1.00  0.00     0.272 C 
ATOM     29 F18  MOL A   1      14.715 -22.357  -6.862  1.00  0.00    -0.204 F 
ATOM     30 F19  MOL A   1      13.098 -21.146  -8.005  1.00  0.00    -0.204 F 
ATOM     31 C20  MOL A   1      15.024 -19.965  -7.122  1.00  0.00     0.064 C 
ENDBRANCH  25  26
ENDBRANCH  20  25
BRANCH  24  32
ATOM     32 O25  MOL A   1      14.047 -14.452  -7.022  1.00  0.00    -0.493 OA
ATOM     33 C26  MOL A   1      13.465 -14.306  -5.731  1.00  0.00     0.078 C 
ENDBRANCH  24  32
ENDBRANCH  18  19
ENDBRANCH  17  18
ENDBRANCH  15  17
ENDBRANCH   8  14
ENDBRANCH   1   8
TORSDOF 10
ENDMDL
MODEL 69
REMARK VINA RESULT:    -7.811      5.709      9.913
REMARK INTER + INTRA:         -13.426
REMARK INTER:                 -12.065
REMARK INTRA:                  -1.361
REMARK UNBOUND:                -1.048
REMARK  10 active torsions:
REMARK  status: ('A' for Active; 'I' for Inactive)
REMARK   1   A    between atoms:  C27_1   and   C6_8  
REMARK   2   A    between atoms:  C6_8    and   C5_9  
REMARK   3   A    between atoms:  C5_9    and   C3_12 
REMARK   4   A    between atoms:  C6_8    and   N7_14 
REMARK   5   A    between atoms:  C8_15   and  C10_17 
REMARK   6   A    between atoms: C10_17   and  O11_18 
REMARK   7   A    between atoms: O11_18   and  C12_19 
REMARK   8   A    between atoms: C13_20   and  C14_25 
REMARK   9   A    between atoms: C14_25   and  N15_26 
REMARK   10  A    between atoms: C24_24   and  O25_32 
ROOT
ATOM      1 C27  MOL A   1       5.819 -19.318  -8.318  1.00  0.00    -0.024 A 
ATOM      2 C28  MOL A   1       4.768 -18.769  -7.561  1.00  0.00    -0.057 A 
ATOM      3 C29  MOL A   1       4.824 -17.438  -7.133  1.00  0.00    -0.061 A 
ATOM      4 C30  MOL A   1       5.928 -16.644  -7.455  1.00  0.00    -0.048 A 
ATOM      5 C31  MOL A   1       6.979 -17.177  -8.210  1.00  0.00     0.018 A 
ATOM      6 Br32 MOL A   1       8.480 -16.083  -8.669  1.00  0.00    -0.051 Br
ATOM      7 C33  MOL A   1       6.929 -18.508  -8.635  1.00  0.00    -0.043 A 
ENDROOT
BRANCH   1   8
ATOM      8  C6  MOL A   1       5.784 -20.778  -8.715  1.00  0.00     0.063 C 
BRANCH   8   9
ATOM      9  C5  MOL A   1       5.025 -21.595  -7.654  1.00  0.00     0.051 C 
BRANCH   9  12
ATOM     10  C1  MOL A   1       1.262 -22.598  -7.551  1.00  0.00     0.006 C 
ATOM     11  N2  MOL A   1       2.627 -22.292  -7.149  1.00  0.00    -0.359 N 
ATOM     12  C3  MOL A   1       3.627 -21.915  -8.102  1.00  0.00     0.222 C 
ATOM     13  O4  MOL A   1       3.339 -21.845  -9.328  1.00  0.00    -0.275 OA
ENDBRANCH   9  12
ENDBRANCH   8   9
BRANCH   8  14
ATOM     14  N7  MOL A   1       7.147 -21.292  -8.884  1.00  0.00    -0.346 N 
ATOM     15  C8  MOL A   1       7.645 -21.755 -10.141  1.00  0.00     0.258 C 
ATOM     16  O9  MOL A   1       6.904 -21.744 -11.160  1.00  0.00    -0.271 OA
BRANCH  15  17
ATOM     17 C10  MOL A   1       9.056 -22.246 -10.264  1.00  0.00     0.167 C 
BRANCH  17  18
ATOM     18 O11  MOL A   1       9.477 -22.863  -9.050  1.00  0.00    -0.480 OA
BRANCH  18  19
ATOM     19 C12  MOL A   1      10.825 -23.097  -8.766  1.00  0.00     0.166 A 
ATOM     20 C13  MOL A   1      11.644 -22.082  -8.219  1.00  0.00     0.012 A 
ATOM     21 C21  MOL A   1      12.972 -22.384  -7.876  1.00  0.00    -0.054 A 
ATOM     22 C22  MOL A   1      13.494 -23.655  -8.115  1.00  0.00    -0.058 A 
ATOM     23 C23  MOL A   1      12.699 -24.641  -8.701  1.00  0.00    -0.016 A 
ATOM     24 C24  MOL A   1      11.360 -24.367  -9.036  1.00  0.00     0.161 A 
BRANCH  20  25
ATOM     25 C14  MOL A   1      11.129 -20.678  -7.995  1.00  0.00     0.028 C 
BRANCH  25  26
ATOM     26 N15  MOL A   1      12.079 -19.687  -8.539  1.00  0.00    -0.287 NA
ATOM     27 C16  MOL A   1      12.734 -18.918  -7.467  1.00  0.00     0.064 C 
ATOM     28 C17  MOL A   1      12.071 -17.622  -7.891  1.00  0.00     0.272 C 
ATOM     29 F18  MOL A   1      12.956 -16.680  -8.383  1.00  0.00    -0.204 F 
ATOM     30 F19  MOL A   1      11.180 -17.121  -6.956  1.00  0.00    -0.204 F 
ATOM     31 C20  MOL A   1      11.406 -18.450  -8.973  1.00  0.00     0.064 C 
ENDBRANCH  25  26
ENDBRANCH  20  25
BRANCH  24  32
ATOM     32 O25  MOL A   1      10.528 -25.329  -9.627  1.00  0.00    -0.493 OA
ATOM     33 C26  MOL A   1      10.766 -25.930 -10.896  1.00  0.00     0.078 C 
ENDBRANCH  24  32
ENDBRANCH  18  19
ENDBRANCH  17  18
ENDBRANCH  15  17
ENDBRANCH   8  14
ENDBRANCH   1   8
TORSDOF 10
ENDMDL
MODEL 70
REMARK VINA RESULT:    -7.810      5.044      9.642
REMARK INTER + INTRA:         -13.424
REMARK INTER:                 -12.385
REMARK INTRA:                  -1.039
REMARK UNBOUND:                -1.048
REMARK  10 active torsions:
REMARK  status: ('A' for Active; 'I' for Inactive)
REMARK   1   A    between atoms:  C27_1   and   C6_8  
REMARK   2   A    between atoms:  C6_8    and   C5_9  
REMARK   3   A    between atoms:  C5_9    and   C3_12 
REMARK   4   A    between atoms:  C6_8    and   N7_14 
REMARK   5   A    between atoms:  C8_15   and  C10_17 
REMARK   6   A    between atoms: C10_17   and  O11_18 
REMARK   7   A    between atoms: O11_18   and  C12_19 
REMARK   8   A    between atoms: C13_20   and  C14_25 
REMARK   9   A    between atoms: C14_25   and  N15_26 
REMARK   10  A    between atoms: C24_24   and  O25_32 
ROOT
ATOM      1 C27  MOL A   1       6.887 -16.757 -10.566  1.00  0.00    -0.024 A 
ATOM      2 C28  MOL A   1       7.092 -17.375 -11.814  1.00  0.00    -0.057 A 
ATOM      3 C29  MOL A   1       6.572 -16.803 -12.980  1.00  0.00    -0.061 A 
ATOM      4 C30  MOL A   1       5.844 -15.612 -12.913  1.00  0.00    -0.048 A 
ATOM      5 C31  MOL A   1       5.636 -14.986 -11.679  1.00  0.00     0.018 A 
ATOM      6 Br32 MOL A   1       4.659 -13.344 -11.591  1.00  0.00    -0.051 Br
ATOM      7 C33  MOL A   1       6.150 -15.557 -10.510  1.00  0.00    -0.043 A 
ENDROOT
BRANCH   1   8
ATOM      8  C6  MOL A   1       7.390 -17.420  -9.302  1.00  0.00     0.063 C 
BRANCH   8   9
ATOM      9  C5  MOL A   1       6.711 -16.792  -8.072  1.00  0.00     0.051 C 
BRANCH   9  12
ATOM     10  C1  MOL A   1       4.422 -19.883  -7.459  1.00  0.00     0.006 C 
ATOM     11  N2  MOL A   1       5.497 -19.027  -7.939  1.00  0.00    -0.359 N 
ATOM     12  C3  MOL A   1       5.584 -17.647  -7.568  1.00  0.00     0.222 C 
ATOM     13  O4  MOL A   1       4.712 -17.139  -6.811  1.00  0.00    -0.275 OA
ENDBRANCH   9  12
ENDBRANCH   8   9
BRANCH   8  14
ATOM     14  N7  MOL A   1       8.848 -17.294  -9.207  1.00  0.00    -0.346 N 
ATOM     15  C8  MOL A   1       9.672 -18.305  -8.622  1.00  0.00     0.258 C 
ATOM     16  O9  MOL A   1       9.153 -19.352  -8.151  1.00  0.00    -0.271 OA
BRANCH  15  17
ATOM     17 C10  MOL A   1      11.161 -18.137  -8.574  1.00  0.00     0.167 C 
BRANCH  17  18
ATOM     18 O11  MOL A   1      11.725 -18.973  -7.568  1.00  0.00    -0.480 OA
BRANCH  18  19
ATOM     19 C12  MOL A   1      12.948 -19.626  -7.746  1.00  0.00     0.166 A 
ATOM     20 C13  MOL A   1      14.146 -18.898  -7.926  1.00  0.00     0.012 A 
ATOM     21 C21  MOL A   1      15.363 -19.593  -8.023  1.00  0.00    -0.054 A 
ATOM     22 C22  MOL A   1      15.386 -20.988  -7.990  1.00  0.00    -0.058 A 
ATOM     23 C23  MOL A   1      14.197 -21.706  -7.863  1.00  0.00    -0.016 A 
ATOM     24 C24  MOL A   1      12.968 -21.030  -7.744  1.00  0.00     0.161 A 
BRANCH  20  25
ATOM     25 C14  MOL A   1      14.154 -17.388  -8.020  1.00  0.00     0.028 C 
BRANCH  25  26
ATOM     26 N15  MOL A   1      14.007 -16.787  -6.679  1.00  0.00    -0.287 NA
ATOM     27 C16  MOL A   1      13.061 -15.659  -6.692  1.00  0.00     0.064 C 
ATOM     28 C17  MOL A   1      14.145 -14.651  -6.365  1.00  0.00     0.272 C 
ATOM     29 F18  MOL A   1      14.004 -14.067  -5.118  1.00  0.00    -0.204 F 
ATOM     30 F19  MOL A   1      14.389 -13.745  -7.385  1.00  0.00    -0.204 F 
ATOM     31 C20  MOL A   1      15.090 -15.836  -6.374  1.00  0.00     0.064 C 
ENDBRANCH  25  26
ENDBRANCH  20  25
BRANCH  24  32
ATOM     32 O25  MOL A   1      11.751 -21.715  -7.615  1.00  0.00    -0.493 OA
ATOM     33 C26  MOL A   1      11.232 -22.624  -8.580  1.00  0.00     0.078 C 
ENDBRANCH  24  32
ENDBRANCH  18  19
ENDBRANCH  17  18
ENDBRANCH  15  17
ENDBRANCH   8  14
ENDBRANCH   1   8
TORSDOF 10
ENDMDL
MODEL 71
REMARK VINA RESULT:    -7.805      6.105     10.141
REMARK INTER + INTRA:         -13.417
REMARK INTER:                 -12.638
REMARK INTRA:                  -0.779
REMARK UNBOUND:                -1.048
REMARK  10 active torsions:
REMARK  status: ('A' for Active; 'I' for Inactive)
REMARK   1   A    between atoms:  C27_1   and   C6_8  
REMARK   2   A    between atoms:  C6_8    and   C5_9  
REMARK   3   A    between atoms:  C5_9    and   C3_12 
REMARK   4   A    between atoms:  C6_8    and   N7_14 
REMARK   5   A    between atoms:  C8_15   and  C10_17 
REMARK   6   A    between atoms: C10_17   and  O11_18 
REMARK   7   A    between atoms: O11_18   and  C12_19 
REMARK   8   A    between atoms: C13_20   and  C14_25 
REMARK   9   A    between atoms: C14_25   and  N15_26 
REMARK   10  A    between atoms: C24_24   and  O25_32 
ROOT
ATOM      1 C27  MOL A   1       7.932 -17.680 -10.453  1.00  0.00    -0.024 A 
ATOM      2 C28  MOL A   1       8.130 -18.271 -11.715  1.00  0.00    -0.057 A 
ATOM      3 C29  MOL A   1       7.463 -17.776 -12.840  1.00  0.00    -0.061 A 
ATOM      4 C30  MOL A   1       6.593 -16.688 -12.718  1.00  0.00    -0.048 A 
ATOM      5 C31  MOL A   1       6.390 -16.090 -11.470  1.00  0.00     0.018 A 
ATOM      6 Br32 MOL A   1       5.216 -14.587 -11.308  1.00  0.00    -0.051 Br
ATOM      7 C33  MOL A   1       7.051 -16.585 -10.342  1.00  0.00    -0.043 A 
ENDROOT
BRANCH   1   8
ATOM      8  C6  MOL A   1       8.600 -18.267  -9.229  1.00  0.00     0.063 C 
BRANCH   8   9
ATOM      9  C5  MOL A   1       7.539 -18.835  -8.270  1.00  0.00     0.051 C 
BRANCH   9  12
ATOM     10  C1  MOL A   1       8.197 -22.503  -9.404  1.00  0.00     0.006 C 
ATOM     11  N2  MOL A   1       8.314 -21.062  -9.232  1.00  0.00    -0.359 N 
ATOM     12  C3  MOL A   1       7.385 -20.319  -8.435  1.00  0.00     0.222 C 
ATOM     13  O4  MOL A   1       6.430 -20.911  -7.862  1.00  0.00    -0.275 OA
ENDBRANCH   9  12
ENDBRANCH   8   9
BRANCH   8  14
ATOM     14  N7  MOL A   1       9.412 -17.248  -8.555  1.00  0.00    -0.346 N 
ATOM     15  C8  MOL A   1      10.658 -17.551  -7.923  1.00  0.00     0.258 C 
ATOM     16  O9  MOL A   1      11.097 -18.731  -7.919  1.00  0.00    -0.271 OA
BRANCH  15  17
ATOM     17 C10  MOL A   1      11.461 -16.466  -7.271  1.00  0.00     0.167 C 
BRANCH  17  18
ATOM     18 O11  MOL A   1      12.688 -16.987  -6.766  1.00  0.00    -0.480 OA
BRANCH  18  19
ATOM     19 C12  MOL A   1      13.928 -16.487  -7.170  1.00  0.00     0.166 A 
ATOM     20 C13  MOL A   1      14.430 -15.271  -6.651  1.00  0.00     0.012 A 
ATOM     21 C21  MOL A   1      15.716 -14.845  -7.024  1.00  0.00    -0.054 A 
ATOM     22 C22  MOL A   1      16.471 -15.586  -7.933  1.00  0.00    -0.058 A 
ATOM     23 C23  MOL A   1      15.954 -16.759  -8.482  1.00  0.00    -0.016 A 
ATOM     24 C24  MOL A   1      14.676 -17.217  -8.108  1.00  0.00     0.161 A 
BRANCH  20  25
ATOM     25 C14  MOL A   1      13.618 -14.413  -5.705  1.00  0.00     0.028 C 
BRANCH  25  26
ATOM     26 N15  MOL A   1      13.727 -14.925  -4.324  1.00  0.00    -0.287 NA
ATOM     27 C16  MOL A   1      14.471 -13.995  -3.458  1.00  0.00     0.064 C 
ATOM     28 C17  MOL A   1      15.616 -14.971  -3.270  1.00  0.00     0.272 C 
ATOM     29 F18  MOL A   1      15.738 -15.440  -1.973  1.00  0.00    -0.204 F 
ATOM     30 F19  MOL A   1      16.810 -14.544  -3.827  1.00  0.00    -0.204 F 
ATOM     31 C20  MOL A   1      14.825 -15.895  -4.175  1.00  0.00     0.064 C 
ENDBRANCH  25  26
ENDBRANCH  20  25
BRANCH  24  32
ATOM     32 O25  MOL A   1      14.120 -18.390  -8.638  1.00  0.00    -0.493 OA
ATOM     33 C26  MOL A   1      14.858 -19.389  -9.334  1.00  0.00     0.078 C 
ENDBRANCH  24  32
ENDBRANCH  18  19
ENDBRANCH  17  18
ENDBRANCH  15  17
ENDBRANCH   8  14
ENDBRANCH   1   8
TORSDOF 10
ENDMDL
MODEL 72
REMARK VINA RESULT:    -7.802      5.693      9.555
REMARK INTER + INTRA:         -13.412
REMARK INTER:                 -12.211
REMARK INTRA:                  -1.200
REMARK UNBOUND:                -1.048
REMARK  10 active torsions:
REMARK  status: ('A' for Active; 'I' for Inactive)
REMARK   1   A    between atoms:  C27_1   and   C6_8  
REMARK   2   A    between atoms:  C6_8    and   C5_9  
REMARK   3   A    between atoms:  C5_9    and   C3_12 
REMARK   4   A    between atoms:  C6_8    and   N7_14 
REMARK   5   A    between atoms:  C8_15   and  C10_17 
REMARK   6   A    between atoms: C10_17   and  O11_18 
REMARK   7   A    between atoms: O11_18   and  C12_19 
REMARK   8   A    between atoms: C13_20   and  C14_25 
REMARK   9   A    between atoms: C14_25   and  N15_26 
REMARK   10  A    between atoms: C24_24   and  O25_32 
ROOT
ATOM      1 C27  MOL A   1       6.573 -19.127  -8.814  1.00  0.00    -0.024 A 
ATOM      2 C28  MOL A   1       5.722 -20.201  -8.497  1.00  0.00    -0.057 A 
ATOM      3 C29  MOL A   1       4.619 -20.005  -7.658  1.00  0.00    -0.061 A 
ATOM      4 C30  MOL A   1       4.356 -18.739  -7.129  1.00  0.00    -0.048 A 
ATOM      5 C31  MOL A   1       5.193 -17.661  -7.440  1.00  0.00     0.018 A 
ATOM      6 Br32 MOL A   1       4.820 -15.923  -6.733  1.00  0.00    -0.051 Br
ATOM      7 C33  MOL A   1       6.300 -17.854  -8.274  1.00  0.00    -0.043 A 
ENDROOT
BRANCH   1   8
ATOM      8  C6  MOL A   1       7.804 -19.362  -9.663  1.00  0.00     0.063 C 
BRANCH   8   9
ATOM      9  C5  MOL A   1       7.543 -20.498 -10.668  1.00  0.00     0.051 C 
BRANCH   9  12
ATOM     10  C1  MOL A   1       9.095 -23.894  -9.560  1.00  0.00     0.006 C 
ATOM     11  N2  MOL A   1       8.171 -22.784  -9.736  1.00  0.00    -0.359 N 
ATOM     12  C3  MOL A   1       8.523 -21.623 -10.496  1.00  0.00     0.222 C 
ATOM     13  O4  MOL A   1       9.662 -21.538 -11.030  1.00  0.00    -0.275 OA
ENDBRANCH   9  12
ENDBRANCH   8   9
BRANCH   8  14
ATOM     14  N7  MOL A   1       8.955 -19.681  -8.811  1.00  0.00    -0.346 N 
ATOM     15  C8  MOL A   1       9.897 -18.693  -8.390  1.00  0.00     0.258 C 
ATOM     16  O9  MOL A   1       9.768 -17.495  -8.755  1.00  0.00    -0.271 OA
BRANCH  15  17
ATOM     17 C10  MOL A   1      11.042 -19.069  -7.497  1.00  0.00     0.167 C 
BRANCH  17  18
ATOM     18 O11  MOL A   1      12.074 -19.703  -8.249  1.00  0.00    -0.480 OA
BRANCH  18  19
ATOM     19 C12  MOL A   1      13.263 -20.137  -7.657  1.00  0.00     0.166 A 
ATOM     20 C13  MOL A   1      14.327 -19.239  -7.410  1.00  0.00     0.012 A 
ATOM     21 C21  MOL A   1      15.472 -19.701  -6.741  1.00  0.00    -0.054 A 
ATOM     22 C22  MOL A   1      15.582 -21.040  -6.367  1.00  0.00    -0.058 A 
ATOM     23 C23  MOL A   1      14.552 -21.936  -6.657  1.00  0.00    -0.016 A 
ATOM     24 C24  MOL A   1      13.387 -21.492  -7.308  1.00  0.00     0.161 A 
BRANCH  20  25
ATOM     25 C14  MOL A   1      14.266 -17.792  -7.847  1.00  0.00     0.028 C 
BRANCH  25  26
ATOM     26 N15  MOL A   1      14.016 -16.912  -6.687  1.00  0.00    -0.287 NA
ATOM     27 C16  MOL A   1      13.000 -15.890  -6.992  1.00  0.00     0.064 C 
ATOM     28 C17  MOL A   1      14.000 -14.757  -6.874  1.00  0.00     0.272 C 
ATOM     29 F18  MOL A   1      13.762 -13.914  -5.801  1.00  0.00    -0.204 F 
ATOM     30 F19  MOL A   1      14.235 -14.093  -8.067  1.00  0.00    -0.204 F 
ATOM     31 C20  MOL A   1      15.019 -15.840  -6.577  1.00  0.00     0.064 C 
ENDBRANCH  25  26
ENDBRANCH  20  25
BRANCH  24  32
ATOM     32 O25  MOL A   1      12.330 -22.359  -7.619  1.00  0.00    -0.493 OA
ATOM     33 C26  MOL A   1      12.468 -23.764  -7.802  1.00  0.00     0.078 C 
ENDBRANCH  24  32
ENDBRANCH  18  19
ENDBRANCH  17  18
ENDBRANCH  15  17
ENDBRANCH   8  14
ENDBRANCH   1   8
TORSDOF 10
ENDMDL
MODEL 73
REMARK VINA RESULT:    -7.796      5.591     10.075
REMARK INTER + INTRA:         -13.401
REMARK INTER:                 -12.248
REMARK INTRA:                  -1.153
REMARK UNBOUND:                -1.048
REMARK  10 active torsions:
REMARK  status: ('A' for Active; 'I' for Inactive)
REMARK   1   A    between atoms:  C27_1   and   C6_8  
REMARK   2   A    between atoms:  C6_8    and   C5_9  
REMARK   3   A    between atoms:  C5_9    and   C3_12 
REMARK   4   A    between atoms:  C6_8    and   N7_14 
REMARK   5   A    between atoms:  C8_15   and  C10_17 
REMARK   6   A    between atoms: C10_17   and  O11_18 
REMARK   7   A    between atoms: O11_18   and  C12_19 
REMARK   8   A    between atoms: C13_20   and  C14_25 
REMARK   9   A    between atoms: C14_25   and  N15_26 
REMARK   10  A    between atoms: C24_24   and  O25_32 
ROOT
ATOM      1 C27  MOL A   1       7.275 -17.590 -10.540  1.00  0.00    -0.024 A 
ATOM      2 C28  MOL A   1       7.523 -18.049 -11.846  1.00  0.00    -0.057 A 
ATOM      3 C29  MOL A   1       7.041 -17.338 -12.950  1.00  0.00    -0.061 A 
ATOM      4 C30  MOL A   1       6.307 -16.164 -12.762  1.00  0.00    -0.048 A 
ATOM      5 C31  MOL A   1       6.056 -15.694 -11.468  1.00  0.00     0.018 A 
ATOM      6 Br32 MOL A   1       5.070 -14.075 -11.212  1.00  0.00    -0.051 Br
ATOM      7 C33  MOL A   1       6.532 -16.405 -10.362  1.00  0.00    -0.043 A 
ENDROOT
BRANCH   1   8
ATOM      8  C6  MOL A   1       7.737 -18.403  -9.351  1.00  0.00     0.063 C 
BRANCH   8   9
ATOM      9  C5  MOL A   1       6.633 -18.446  -8.279  1.00  0.00     0.051 C 
BRANCH   9  12
ATOM     10  C1  MOL A   1       4.379 -21.439  -7.214  1.00  0.00     0.006 C 
ATOM     11  N2  MOL A   1       4.871 -20.090  -7.455  1.00  0.00    -0.359 N 
ATOM     12  C3  MOL A   1       6.158 -19.849  -8.034  1.00  0.00     0.222 C 
ATOM     13  O4  MOL A   1       6.904 -20.818  -8.344  1.00  0.00    -0.275 OA
ENDBRANCH   9  12
ENDBRANCH   8   9
BRANCH   8  14
ATOM     14  N7  MOL A   1       8.972 -17.837  -8.797  1.00  0.00    -0.346 N 
ATOM     15  C8  MOL A   1      10.269 -18.213  -9.265  1.00  0.00     0.258 C 
ATOM     16  O9  MOL A   1      10.389 -19.070 -10.181  1.00  0.00    -0.271 OA
BRANCH  15  17
ATOM     17 C10  MOL A   1      11.498 -17.583  -8.682  1.00  0.00     0.167 C 
BRANCH  17  18
ATOM     18 O11  MOL A   1      11.983 -18.357  -7.587  1.00  0.00    -0.480 OA
BRANCH  18  19
ATOM     19 C12  MOL A   1      13.023 -19.279  -7.734  1.00  0.00     0.166 A 
ATOM     20 C13  MOL A   1      14.365 -18.853  -7.862  1.00  0.00     0.012 A 
ATOM     21 C21  MOL A   1      15.386 -19.816  -7.928  1.00  0.00    -0.054 A 
ATOM     22 C22  MOL A   1      15.078 -21.176  -7.917  1.00  0.00    -0.058 A 
ATOM     23 C23  MOL A   1      13.750 -21.594  -7.842  1.00  0.00    -0.016 A 
ATOM     24 C24  MOL A   1      12.711 -20.648  -7.754  1.00  0.00     0.161 A 
BRANCH  20  25
ATOM     25 C14  MOL A   1      14.733 -17.388  -7.931  1.00  0.00     0.028 C 
BRANCH  25  26
ATOM     26 N15  MOL A   1      15.891 -17.105  -7.058  1.00  0.00    -0.287 NA
ATOM     27 C16  MOL A   1      15.734 -15.823  -6.349  1.00  0.00     0.064 C 
ATOM     28 C17  MOL A   1      16.898 -15.190  -7.085  1.00  0.00     0.272 C 
ATOM     29 F18  MOL A   1      17.980 -14.902  -6.271  1.00  0.00    -0.204 F 
ATOM     30 F19  MOL A   1      16.529 -14.147  -7.919  1.00  0.00    -0.204 F 
ATOM     31 C20  MOL A   1      17.019 -16.520  -7.803  1.00  0.00     0.064 C 
ENDBRANCH  25  26
ENDBRANCH  20  25
BRANCH  24  32
ATOM     32 O25  MOL A   1      11.363 -21.026  -7.678  1.00  0.00    -0.493 OA
ATOM     33 C26  MOL A   1      10.737 -21.960  -8.553  1.00  0.00     0.078 C 
ENDBRANCH  24  32
ENDBRANCH  18  19
ENDBRANCH  17  18
ENDBRANCH  15  17
ENDBRANCH   8  14
ENDBRANCH   1   8
TORSDOF 10
ENDMDL
MODEL 74
REMARK VINA RESULT:    -7.796      2.376      3.620
REMARK INTER + INTRA:         -13.401
REMARK INTER:                 -12.505
REMARK INTRA:                  -0.896
REMARK UNBOUND:                -1.048
REMARK  10 active torsions:
REMARK  status: ('A' for Active; 'I' for Inactive)
REMARK   1   A    between atoms:  C27_1   and   C6_8  
REMARK   2   A    between atoms:  C6_8    and   C5_9  
REMARK   3   A    between atoms:  C5_9    and   C3_12 
REMARK   4   A    between atoms:  C6_8    and   N7_14 
REMARK   5   A    between atoms:  C8_15   and  C10_17 
REMARK   6   A    between atoms: C10_17   and  O11_18 
REMARK   7   A    between atoms: O11_18   and  C12_19 
REMARK   8   A    between atoms: C13_20   and  C14_25 
REMARK   9   A    between atoms: C14_25   and  N15_26 
REMARK   10  A    between atoms: C24_24   and  O25_32 
ROOT
ATOM      1 C27  MOL A   1       9.014 -18.927  -9.834  1.00  0.00    -0.024 A 
ATOM      2 C28  MOL A   1       9.438 -19.065 -11.168  1.00  0.00    -0.057 A 
ATOM      3 C29  MOL A   1      10.770 -18.815 -11.516  1.00  0.00    -0.061 A 
ATOM      4 C30  MOL A   1      11.689 -18.425 -10.539  1.00  0.00    -0.048 A 
ATOM      5 C31  MOL A   1      11.281 -18.287  -9.207  1.00  0.00     0.018 A 
ATOM      6 Br32 MOL A   1      12.545 -17.775  -7.866  1.00  0.00    -0.051 Br
ATOM      7 C33  MOL A   1       9.949 -18.531  -8.856  1.00  0.00    -0.043 A 
ENDROOT
BRANCH   1   8
ATOM      8  C6  MOL A   1       7.557 -19.129  -9.478  1.00  0.00     0.063 C 
BRANCH   8   9
ATOM      9  C5  MOL A   1       7.126 -20.568  -9.813  1.00  0.00     0.051 C 
BRANCH   9  12
ATOM     10  C1  MOL A   1       4.682 -21.168  -6.841  1.00  0.00     0.006 C 
ATOM     11  N2  MOL A   1       5.854 -20.795  -7.619  1.00  0.00    -0.359 N 
ATOM     12  C3  MOL A   1       5.906 -20.972  -9.038  1.00  0.00     0.222 C 
ATOM     13  O4  MOL A   1       4.920 -21.469  -9.650  1.00  0.00    -0.275 OA
ENDBRANCH   9  12
ENDBRANCH   8   9
BRANCH   8  14
ATOM     14  N7  MOL A   1       6.720 -18.160 -10.195  1.00  0.00    -0.346 N 
ATOM     15  C8  MOL A   1       6.576 -16.803  -9.767  1.00  0.00     0.258 C 
ATOM     16  O9  MOL A   1       7.171 -16.397  -8.734  1.00  0.00    -0.271 OA
BRANCH  15  17
ATOM     17 C10  MOL A   1       5.729 -15.847 -10.551  1.00  0.00     0.167 C 
BRANCH  17  18
ATOM     18 O11  MOL A   1       5.239 -14.808  -9.708  1.00  0.00    -0.480 OA
BRANCH  18  19
ATOM     19 C12  MOL A   1       3.895 -14.728  -9.335  1.00  0.00     0.166 A 
ATOM     20 C13  MOL A   1       2.952 -14.047 -10.139  1.00  0.00     0.012 A 
ATOM     21 C21  MOL A   1       1.597 -14.060  -9.766  1.00  0.00    -0.054 A 
ATOM     22 C22  MOL A   1       1.192 -14.693  -8.591  1.00  0.00    -0.058 A 
ATOM     23 C23  MOL A   1       2.131 -15.321  -7.773  1.00  0.00    -0.016 A 
ATOM     24 C24  MOL A   1       3.491 -15.339  -8.136  1.00  0.00     0.161 A 
BRANCH  20  25
ATOM     25 C14  MOL A   1       3.361 -13.304 -11.391  1.00  0.00     0.028 C 
BRANCH  25  26
ATOM     26 N15  MOL A   1       3.336 -11.846 -11.156  1.00  0.00    -0.287 NA
ATOM     27 C16  MOL A   1       1.978 -11.296 -11.304  1.00  0.00     0.064 C 
ATOM     28 C17  MOL A   1       2.359 -10.487 -12.528  1.00  0.00     0.272 C 
ATOM     29 F18  MOL A   1       2.319  -9.119 -12.324  1.00  0.00    -0.204 F 
ATOM     30 F19  MOL A   1       1.727 -10.900 -13.689  1.00  0.00    -0.204 F 
ATOM     31 C20  MOL A   1       3.742 -11.084 -12.350  1.00  0.00     0.064 C 
ENDBRANCH  25  26
ENDBRANCH  20  25
BRANCH  24  32
ATOM     32 O25  MOL A   1       4.467 -15.958  -7.341  1.00  0.00    -0.493 OA
ATOM     33 C26  MOL A   1       4.786 -15.569  -6.010  1.00  0.00     0.078 C 
ENDBRANCH  24  32
ENDBRANCH  18  19
ENDBRANCH  17  18
ENDBRANCH  15  17
ENDBRANCH   8  14
ENDBRANCH   1   8
TORSDOF 10
ENDMDL
MODEL 75
REMARK VINA RESULT:    -7.793      4.342      9.210
REMARK INTER + INTRA:         -13.398
REMARK INTER:                 -11.904
REMARK INTRA:                  -1.493
REMARK UNBOUND:                -1.048
REMARK  10 active torsions:
REMARK  status: ('A' for Active; 'I' for Inactive)
REMARK   1   A    between atoms:  C27_1   and   C6_8  
REMARK   2   A    between atoms:  C6_8    and   C5_9  
REMARK   3   A    between atoms:  C5_9    and   C3_12 
REMARK   4   A    between atoms:  C6_8    and   N7_14 
REMARK   5   A    between atoms:  C8_15   and  C10_17 
REMARK   6   A    between atoms: C10_17   and  O11_18 
REMARK   7   A    between atoms: O11_18   and  C12_19 
REMARK   8   A    between atoms: C13_20   and  C14_25 
REMARK   9   A    between atoms: C14_25   and  N15_26 
REMARK   10  A    between atoms: C24_24   and  O25_32 
ROOT
ATOM      1 C27  MOL A   1       6.857 -18.806  -9.348  1.00  0.00    -0.024 A 
ATOM      2 C28  MOL A   1       5.992 -18.656  -8.249  1.00  0.00    -0.057 A 
ATOM      3 C29  MOL A   1       5.151 -19.705  -7.862  1.00  0.00    -0.061 A 
ATOM      4 C30  MOL A   1       5.164 -20.911  -8.568  1.00  0.00    -0.048 A 
ATOM      5 C31  MOL A   1       6.022 -21.075  -9.661  1.00  0.00     0.018 A 
ATOM      6 Br32 MOL A   1       6.056 -22.734 -10.612  1.00  0.00    -0.051 Br
ATOM      7 C33  MOL A   1       6.861 -20.027 -10.054  1.00  0.00    -0.043 A 
ENDROOT
BRANCH   1   8
ATOM      8  C6  MOL A   1       7.711 -17.643  -9.805  1.00  0.00     0.063 C 
BRANCH   8   9
ATOM      9  C5  MOL A   1       7.733 -17.577 -11.342  1.00  0.00     0.051 C 
BRANCH   9  12
ATOM     10  C1  MOL A   1       5.195 -14.625 -11.488  1.00  0.00     0.006 C 
ATOM     11  N2  MOL A   1       6.168 -15.596 -11.007  1.00  0.00    -0.359 N 
ATOM     12  C3  MOL A   1       6.724 -16.596 -11.866  1.00  0.00     0.222 C 
ATOM     13  O4  MOL A   1       6.370 -16.659 -13.075  1.00  0.00    -0.275 OA
ENDBRANCH   9  12
ENDBRANCH   8   9
BRANCH   8  14
ATOM     14  N7  MOL A   1       9.072 -17.772  -9.273  1.00  0.00    -0.346 N 
ATOM     15  C8  MOL A   1       9.583 -16.914  -8.251  1.00  0.00     0.258 C 
ATOM     16  O9  MOL A   1       8.864 -15.996  -7.774  1.00  0.00    -0.271 OA
BRANCH  15  17
ATOM     17 C10  MOL A   1      10.973 -17.106  -7.725  1.00  0.00     0.167 C 
BRANCH  17  18
ATOM     18 O11  MOL A   1      11.780 -17.788  -8.683  1.00  0.00    -0.480 OA
BRANCH  18  19
ATOM     19 C12  MOL A   1      12.620 -18.845  -8.326  1.00  0.00     0.166 A 
ATOM     20 C13  MOL A   1      13.993 -18.632  -8.063  1.00  0.00     0.012 A 
ATOM     21 C21  MOL A   1      14.784 -19.709  -7.631  1.00  0.00    -0.054 A 
ATOM     22 C22  MOL A   1      14.235 -20.986  -7.509  1.00  0.00    -0.058 A 
ATOM     23 C23  MOL A   1      12.892 -21.205  -7.818  1.00  0.00    -0.016 A 
ATOM     24 C24  MOL A   1      12.076 -20.137  -8.233  1.00  0.00     0.161 A 
BRANCH  20  25
ATOM     25 C14  MOL A   1      14.635 -17.273  -8.235  1.00  0.00     0.028 C 
BRANCH  25  26
ATOM     26 N15  MOL A   1      15.242 -16.824  -6.965  1.00  0.00    -0.287 NA
ATOM     27 C16  MOL A   1      14.222 -16.604  -5.926  1.00  0.00     0.064 C 
ATOM     28 C17  MOL A   1      14.483 -15.112  -5.882  1.00  0.00     0.272 C 
ATOM     29 F18  MOL A   1      15.033 -14.679  -4.688  1.00  0.00    -0.204 F 
ATOM     30 F19  MOL A   1      13.415 -14.346  -6.319  1.00  0.00    -0.204 F 
ATOM     31 C20  MOL A   1      15.515 -15.377  -6.961  1.00  0.00     0.064 C 
ENDBRANCH  25  26
ENDBRANCH  20  25
BRANCH  24  32
ATOM     32 O25  MOL A   1      10.722 -20.314  -8.554  1.00  0.00    -0.493 OA
ATOM     33 C26  MOL A   1      10.151 -21.546  -8.983  1.00  0.00     0.078 C 
ENDBRANCH  24  32
ENDBRANCH  18  19
ENDBRANCH  17  18
ENDBRANCH  15  17
ENDBRANCH   8  14
ENDBRANCH   1   8
TORSDOF 10
ENDMDL
MODEL 76
REMARK VINA RESULT:    -7.792      5.561      9.934
REMARK INTER + INTRA:         -13.396
REMARK INTER:                 -12.352
REMARK INTRA:                  -1.043
REMARK UNBOUND:                -1.048
REMARK  10 active torsions:
REMARK  status: ('A' for Active; 'I' for Inactive)
REMARK   1   A    between atoms:  C27_1   and   C6_8  
REMARK   2   A    between atoms:  C6_8    and   C5_9  
REMARK   3   A    between atoms:  C5_9    and   C3_12 
REMARK   4   A    between atoms:  C6_8    and   N7_14 
REMARK   5   A    between atoms:  C8_15   and  C10_17 
REMARK   6   A    between atoms: C10_17   and  O11_18 
REMARK   7   A    between atoms: O11_18   and  C12_19 
REMARK   8   A    between atoms: C13_20   and  C14_25 
REMARK   9   A    between atoms: C14_25   and  N15_26 
REMARK   10  A    between atoms: C24_24   and  O25_32 
ROOT
ATOM      1 C27  MOL A   1       7.199 -16.966 -10.336  1.00  0.00    -0.024 A 
ATOM      2 C28  MOL A   1       7.581 -17.778 -11.420  1.00  0.00    -0.057 A 
ATOM      3 C29  MOL A   1       7.155 -17.471 -12.717  1.00  0.00    -0.061 A 
ATOM      4 C30  MOL A   1       6.345 -16.355 -12.945  1.00  0.00    -0.048 A 
ATOM      5 C31  MOL A   1       5.961 -15.538 -11.876  1.00  0.00     0.018 A 
ATOM      6 Br32 MOL A   1       4.871 -13.998 -12.191  1.00  0.00    -0.051 Br
ATOM      7 C33  MOL A   1       6.380 -15.844 -10.577  1.00  0.00    -0.043 A 
ENDROOT
BRANCH   1   8
ATOM      8  C6  MOL A   1       7.603 -17.345  -8.928  1.00  0.00     0.063 C 
BRANCH   8   9
ATOM      9  C5  MOL A   1       6.669 -16.665  -7.910  1.00  0.00     0.051 C 
BRANCH   9  12
ATOM     10  C1  MOL A   1       4.453 -19.844  -7.513  1.00  0.00     0.006 C 
ATOM     11  N2  MOL A   1       5.541 -18.948  -7.879  1.00  0.00    -0.359 N 
ATOM     12  C3  MOL A   1       5.527 -17.560  -7.527  1.00  0.00     0.222 C 
ATOM     13  O4  MOL A   1       4.551 -17.080  -6.887  1.00  0.00    -0.275 OA
ENDBRANCH   9  12
ENDBRANCH   8   9
BRANCH   8  14
ATOM     14  N7  MOL A   1       8.998 -16.967  -8.680  1.00  0.00    -0.346 N 
ATOM     15  C8  MOL A   1       9.914 -17.818  -7.987  1.00  0.00     0.258 C 
ATOM     16  O9  MOL A   1       9.535 -18.937  -7.549  1.00  0.00    -0.271 OA
BRANCH  15  17
ATOM     17 C10  MOL A   1      11.338 -17.394  -7.784  1.00  0.00     0.167 C 
BRANCH  17  18
ATOM     18 O11  MOL A   1      12.228 -18.334  -8.381  1.00  0.00    -0.480 OA
BRANCH  18  19
ATOM     19 C12  MOL A   1      12.915 -19.287  -7.625  1.00  0.00     0.166 A 
ATOM     20 C13  MOL A   1      13.962 -18.912  -6.752  1.00  0.00     0.012 A 
ATOM     21 C21  MOL A   1      14.572 -19.893  -5.952  1.00  0.00    -0.054 A 
ATOM     22 C22  MOL A   1      14.185 -21.229  -6.051  1.00  0.00    -0.058 A 
ATOM     23 C23  MOL A   1      13.186 -21.604  -6.950  1.00  0.00    -0.016 A 
ATOM     24 C24  MOL A   1      12.546 -20.637  -7.747  1.00  0.00     0.161 A 
BRANCH  20  25
ATOM     25 C14  MOL A   1      14.446 -17.482  -6.656  1.00  0.00     0.028 C 
BRANCH  25  26
ATOM     26 N15  MOL A   1      15.092 -17.070  -7.919  1.00  0.00    -0.287 NA
ATOM     27 C16  MOL A   1      16.552 -16.947  -7.766  1.00  0.00     0.064 C 
ATOM     28 C17  MOL A   1      16.522 -15.448  -7.992  1.00  0.00     0.272 C 
ATOM     29 F18  MOL A   1      17.144 -15.051  -9.163  1.00  0.00    -0.204 F 
ATOM     30 F19  MOL A   1      16.894 -14.709  -6.881  1.00  0.00    -0.204 F 
ATOM     31 C20  MOL A   1      15.022 -15.614  -8.131  1.00  0.00     0.064 C 
ENDBRANCH  25  26
ENDBRANCH  20  25
BRANCH  24  32
ATOM     32 O25  MOL A   1      11.539 -20.973  -8.663  1.00  0.00    -0.493 OA
ATOM     33 C26  MOL A   1      10.734 -22.144  -8.580  1.00  0.00     0.078 C 
ENDBRANCH  24  32
ENDBRANCH  18  19
ENDBRANCH  17  18
ENDBRANCH  15  17
ENDBRANCH   8  14
ENDBRANCH   1   8
TORSDOF 10
ENDMDL
MODEL 77
REMARK VINA RESULT:    -7.783      5.147      9.601
REMARK INTER + INTRA:         -13.381
REMARK INTER:                 -11.897
REMARK INTRA:                  -1.483
REMARK UNBOUND:                -1.048
REMARK  10 active torsions:
REMARK  status: ('A' for Active; 'I' for Inactive)
REMARK   1   A    between atoms:  C27_1   and   C6_8  
REMARK   2   A    between atoms:  C6_8    and   C5_9  
REMARK   3   A    between atoms:  C5_9    and   C3_12 
REMARK   4   A    between atoms:  C6_8    and   N7_14 
REMARK   5   A    between atoms:  C8_15   and  C10_17 
REMARK   6   A    between atoms: C10_17   and  O11_18 
REMARK   7   A    between atoms: O11_18   and  C12_19 
REMARK   8   A    between atoms: C13_20   and  C14_25 
REMARK   9   A    between atoms: C14_25   and  N15_26 
REMARK   10  A    between atoms: C24_24   and  O25_32 
ROOT
ATOM      1 C27  MOL A   1       5.935 -20.638  -8.503  1.00  0.00    -0.024 A 
ATOM      2 C28  MOL A   1       5.580 -20.710  -7.144  1.00  0.00    -0.057 A 
ATOM      3 C29  MOL A   1       4.396 -21.347  -6.755  1.00  0.00    -0.061 A 
ATOM      4 C30  MOL A   1       3.557 -21.915  -7.717  1.00  0.00    -0.048 A 
ATOM      5 C31  MOL A   1       3.900 -21.853  -9.072  1.00  0.00     0.018 A 
ATOM      6 Br32 MOL A   1       2.762 -22.651 -10.386  1.00  0.00    -0.051 Br
ATOM      7 C33  MOL A   1       5.080 -21.213  -9.465  1.00  0.00    -0.043 A 
ENDROOT
BRANCH   1   8
ATOM      8  C6  MOL A   1       7.180 -19.885  -8.921  1.00  0.00     0.063 C 
BRANCH   8   9
ATOM      9  C5  MOL A   1       7.297 -19.871 -10.456  1.00  0.00     0.051 C 
BRANCH   9  12
ATOM     10  C1  MOL A   1       6.963 -15.994 -10.640  1.00  0.00     0.006 C 
ATOM     11  N2  MOL A   1       6.960 -17.365 -10.150  1.00  0.00    -0.359 N 
ATOM     12  C3  MOL A   1       7.299 -18.470 -10.995  1.00  0.00     0.222 C 
ATOM     13  O4  MOL A   1       7.606 -18.271 -12.202  1.00  0.00    -0.275 OA
ENDBRANCH   9  12
ENDBRANCH   8   9
BRANCH   8  14
ATOM     14  N7  MOL A   1       8.370 -20.496  -8.319  1.00  0.00    -0.346 N 
ATOM     15  C8  MOL A   1       9.501 -19.728  -7.903  1.00  0.00     0.258 C 
ATOM     16  O9  MOL A   1       9.511 -18.478  -8.055  1.00  0.00    -0.271 OA
BRANCH  15  17
ATOM     17 C10  MOL A   1      10.681 -20.400  -7.268  1.00  0.00     0.167 C 
BRANCH  17  18
ATOM     18 O11  MOL A   1      11.659 -20.727  -8.253  1.00  0.00    -0.480 OA
BRANCH  18  19
ATOM     19 C12  MOL A   1      12.973 -21.060  -7.912  1.00  0.00     0.166 A 
ATOM     20 C13  MOL A   1      13.985 -20.075  -7.855  1.00  0.00     0.012 A 
ATOM     21 C21  MOL A   1      15.274 -20.440  -7.431  1.00  0.00    -0.054 A 
ATOM     22 C22  MOL A   1      15.565 -21.767  -7.115  1.00  0.00    -0.058 A 
ATOM     23 C23  MOL A   1      14.578 -22.747  -7.221  1.00  0.00    -0.016 A 
ATOM     24 C24  MOL A   1      13.274 -22.401  -7.624  1.00  0.00     0.161 A 
BRANCH  20  25
ATOM     25 C14  MOL A   1      13.720 -18.636  -8.240  1.00  0.00     0.028 C 
BRANCH  25  26
ATOM     26 N15  MOL A   1      13.229 -17.872  -7.075  1.00  0.00    -0.287 NA
ATOM     27 C16  MOL A   1      12.447 -16.695  -7.490  1.00  0.00     0.064 C 
ATOM     28 C17  MOL A   1      13.472 -15.727  -6.934  1.00  0.00     0.272 C 
ATOM     29 F18  MOL A   1      13.014 -14.991  -5.855  1.00  0.00    -0.204 F 
ATOM     30 F19  MOL A   1      14.103 -14.966  -7.905  1.00  0.00    -0.204 F 
ATOM     31 C20  MOL A   1      14.254 -16.963  -6.535  1.00  0.00     0.064 C 
ENDBRANCH  25  26
ENDBRANCH  20  25
BRANCH  24  32
ATOM     32 O25  MOL A   1      12.253 -23.355  -7.743  1.00  0.00    -0.493 OA
ATOM     33 C26  MOL A   1      12.472 -24.750  -7.926  1.00  0.00     0.078 C 
ENDBRANCH  24  32
ENDBRANCH  18  19
ENDBRANCH  17  18
ENDBRANCH  15  17
ENDBRANCH   8  14
ENDBRANCH   1   8
TORSDOF 10
ENDMDL
MODEL 78
REMARK VINA RESULT:    -7.781      5.150      9.691
REMARK INTER + INTRA:         -13.378
REMARK INTER:                 -12.416
REMARK INTRA:                  -0.963
REMARK UNBOUND:                -1.048
REMARK  10 active torsions:
REMARK  status: ('A' for Active; 'I' for Inactive)
REMARK   1   A    between atoms:  C27_1   and   C6_8  
REMARK   2   A    between atoms:  C6_8    and   C5_9  
REMARK   3   A    between atoms:  C5_9    and   C3_12 
REMARK   4   A    between atoms:  C6_8    and   N7_14 
REMARK   5   A    between atoms:  C8_15   and  C10_17 
REMARK   6   A    between atoms: C10_17   and  O11_18 
REMARK   7   A    between atoms: O11_18   and  C12_19 
REMARK   8   A    between atoms: C13_20   and  C14_25 
REMARK   9   A    between atoms: C14_25   and  N15_26 
REMARK   10  A    between atoms: C24_24   and  O25_32 
ROOT
ATOM      1 C27  MOL A   1       5.790 -20.640  -9.017  1.00  0.00    -0.024 A 
ATOM      2 C28  MOL A   1       5.898 -21.526 -10.105  1.00  0.00    -0.057 A 
ATOM      3 C29  MOL A   1       4.802 -22.300 -10.499  1.00  0.00    -0.061 A 
ATOM      4 C30  MOL A   1       3.588 -22.198  -9.813  1.00  0.00    -0.048 A 
ATOM      5 C31  MOL A   1       3.466 -21.319  -8.731  1.00  0.00     0.018 A 
ATOM      6 Br32 MOL A   1       1.799 -21.164  -7.806  1.00  0.00    -0.051 Br
ATOM      7 C33  MOL A   1       4.562 -20.547  -8.331  1.00  0.00    -0.043 A 
ENDROOT
BRANCH   1   8
ATOM      8  C6  MOL A   1       7.001 -19.861  -8.551  1.00  0.00     0.063 C 
BRANCH   8   9
ATOM      9  C5  MOL A   1       7.067 -18.506  -9.279  1.00  0.00     0.051 C 
BRANCH   9  12
ATOM     10  C1  MOL A   1       5.205 -16.171  -6.778  1.00  0.00     0.006 C 
ATOM     11  N2  MOL A   1       5.509 -17.260  -7.696  1.00  0.00    -0.359 N 
ATOM     12  C3  MOL A   1       6.780 -17.365  -8.346  1.00  0.00     0.222 C 
ATOM     13  O4  MOL A   1       7.672 -16.498  -8.135  1.00  0.00    -0.275 OA
ENDBRANCH   9  12
ENDBRANCH   8   9
BRANCH   8  14
ATOM     14  N7  MOL A   1       8.225 -20.634  -8.788  1.00  0.00    -0.346 N 
ATOM     15  C8  MOL A   1       9.489 -20.259  -8.238  1.00  0.00     0.258 C 
ATOM     16  O9  MOL A   1       9.591 -19.224  -7.528  1.00  0.00    -0.271 OA
BRANCH  15  17
ATOM     17 C10  MOL A   1      10.705 -21.100  -8.489  1.00  0.00     0.167 C 
BRANCH  17  18
ATOM     18 O11  MOL A   1      11.760 -20.728  -7.606  1.00  0.00    -0.480 OA
BRANCH  18  19
ATOM     19 C12  MOL A   1      13.101 -20.986  -7.903  1.00  0.00     0.166 A 
ATOM     20 C13  MOL A   1      13.978 -19.945  -8.286  1.00  0.00     0.012 A 
ATOM     21 C21  MOL A   1      15.336 -20.237  -8.499  1.00  0.00    -0.054 A 
ATOM     22 C22  MOL A   1      15.806 -21.545  -8.382  1.00  0.00    -0.058 A 
ATOM     23 C23  MOL A   1      14.929 -22.578  -8.053  1.00  0.00    -0.016 A 
ATOM     24 C24  MOL A   1      13.568 -22.307  -7.816  1.00  0.00     0.161 A 
BRANCH  20  25
ATOM     25 C14  MOL A   1      13.494 -18.524  -8.475  1.00  0.00     0.028 C 
BRANCH  25  26
ATOM     26 N15  MOL A   1      14.476 -17.568  -7.925  1.00  0.00    -0.287 NA
ATOM     27 C16  MOL A   1      14.204 -17.265  -6.510  1.00  0.00     0.064 C 
ATOM     28 C17  MOL A   1      13.862 -15.818  -6.810  1.00  0.00     0.272 C 
ATOM     29 F18  MOL A   1      14.766 -14.913  -6.281  1.00  0.00    -0.204 F 
ATOM     30 F19  MOL A   1      12.537 -15.496  -6.565  1.00  0.00    -0.204 F 
ATOM     31 C20  MOL A   1      14.139 -16.173  -8.258  1.00  0.00     0.064 C 
ENDBRANCH  25  26
ENDBRANCH  20  25
BRANCH  24  32
ATOM     32 O25  MOL A   1      12.654 -23.318  -7.484  1.00  0.00    -0.493 OA
ATOM     33 C26  MOL A   1      12.949 -24.425  -6.639  1.00  0.00     0.078 C 
ENDBRANCH  24  32
ENDBRANCH  18  19
ENDBRANCH  17  18
ENDBRANCH  15  17
ENDBRANCH   8  14
ENDBRANCH   1   8
TORSDOF 10
ENDMDL
MODEL 79
REMARK VINA RESULT:    -7.779      4.942      7.657
REMARK INTER + INTRA:         -13.375
REMARK INTER:                 -13.265
REMARK INTRA:                  -0.110
REMARK UNBOUND:                -1.048
REMARK  10 active torsions:
REMARK  status: ('A' for Active; 'I' for Inactive)
REMARK   1   A    between atoms:  C27_1   and   C6_8  
REMARK   2   A    between atoms:  C6_8    and   C5_9  
REMARK   3   A    between atoms:  C5_9    and   C3_12 
REMARK   4   A    between atoms:  C6_8    and   N7_14 
REMARK   5   A    between atoms:  C8_15   and  C10_17 
REMARK   6   A    between atoms: C10_17   and  O11_18 
REMARK   7   A    between atoms: O11_18   and  C12_19 
REMARK   8   A    between atoms: C13_20   and  C14_25 
REMARK   9   A    between atoms: C14_25   and  N15_26 
REMARK   10  A    between atoms: C24_24   and  O25_32 
ROOT
ATOM      1 C27  MOL A   1       5.160 -15.547  -9.500  1.00  0.00    -0.024 A 
ATOM      2 C28  MOL A   1       4.021 -15.233  -8.737  1.00  0.00    -0.057 A 
ATOM      3 C29  MOL A   1       2.995 -14.456  -9.284  1.00  0.00    -0.061 A 
ATOM      4 C30  MOL A   1       3.095 -13.985 -10.596  1.00  0.00    -0.048 A 
ATOM      5 C31  MOL A   1       4.222 -14.292 -11.367  1.00  0.00     0.018 A 
ATOM      6 Br32 MOL A   1       4.349 -13.665 -13.170  1.00  0.00    -0.051 Br
ATOM      7 C33  MOL A   1       5.252 -15.064 -10.821  1.00  0.00    -0.043 A 
ENDROOT
BRANCH   1   8
ATOM      8  C6  MOL A   1       6.298 -16.326  -8.877  1.00  0.00     0.063 C 
BRANCH   8   9
ATOM      9  C5  MOL A   1       7.556 -16.217  -9.757  1.00  0.00     0.051 C 
BRANCH   9  12
ATOM     10  C1  MOL A   1       9.823 -19.370 -10.055  1.00  0.00     0.006 C 
ATOM     11  N2  MOL A   1       8.849 -18.329 -10.350  1.00  0.00    -0.359 N 
ATOM     12  C3  MOL A   1       8.559 -17.282  -9.418  1.00  0.00     0.222 C 
ATOM     13  O4  MOL A   1       9.149 -17.245  -8.304  1.00  0.00    -0.275 OA
ENDBRANCH   9  12
ENDBRANCH   8   9
BRANCH   8  14
ATOM     14  N7  MOL A   1       5.914 -17.731  -8.698  1.00  0.00    -0.346 N 
ATOM     15  C8  MOL A   1       5.183 -18.189  -7.559  1.00  0.00     0.258 C 
ATOM     16  O9  MOL A   1       4.849 -17.382  -6.651  1.00  0.00    -0.271 OA
BRANCH  15  17
ATOM     17 C10  MOL A   1       4.793 -19.632  -7.438  1.00  0.00     0.167 C 
BRANCH  17  18
ATOM     18 O11  MOL A   1       3.465 -19.831  -7.919  1.00  0.00    -0.480 OA
BRANCH  18  19
ATOM     19 C12  MOL A   1       3.115 -20.946  -8.686  1.00  0.00     0.166 A 
ATOM     20 C13  MOL A   1       1.786 -21.430  -8.707  1.00  0.00     0.012 A 
ATOM     21 C21  MOL A   1       1.462 -22.504  -9.553  1.00  0.00    -0.054 A 
ATOM     22 C22  MOL A   1       2.447 -23.119 -10.326  1.00  0.00    -0.058 A 
ATOM     23 C23  MOL A   1       3.767 -22.672 -10.265  1.00  0.00    -0.016 A 
ATOM     24 C24  MOL A   1       4.112 -21.585  -9.441  1.00  0.00     0.161 A 
BRANCH  20  25
ATOM     25 C14  MOL A   1       0.703 -20.823  -7.843  1.00  0.00     0.028 C 
BRANCH  25  26
ATOM     26 N15  MOL A   1      -0.628 -21.289  -8.281  1.00  0.00    -0.287 NA
ATOM     27 C16  MOL A   1      -1.439 -20.184  -8.820  1.00  0.00     0.064 C 
ATOM     28 C17  MOL A   1      -2.444 -20.273  -7.688  1.00  0.00     0.272 C 
ATOM     29 F18  MOL A   1      -3.700 -20.689  -8.093  1.00  0.00    -0.204 F 
ATOM     30 F19  MOL A   1      -2.459 -19.157  -6.868  1.00  0.00    -0.204 F 
ATOM     31 C20  MOL A   1      -1.576 -21.398  -7.159  1.00  0.00     0.064 C 
ENDBRANCH  25  26
ENDBRANCH  20  25
BRANCH  24  32
ATOM     32 O25  MOL A   1       5.427 -21.106  -9.350  1.00  0.00    -0.493 OA
ATOM     33 C26  MOL A   1       6.308 -20.958 -10.459  1.00  0.00     0.078 C 
ENDBRANCH  24  32
ENDBRANCH  18  19
ENDBRANCH  17  18
ENDBRANCH  15  17
ENDBRANCH   8  14
ENDBRANCH   1   8
TORSDOF 10
ENDMDL
MODEL 80
REMARK VINA RESULT:    -7.778      4.790      7.836
REMARK INTER + INTRA:         -13.374
REMARK INTER:                 -13.098
REMARK INTRA:                  -0.276
REMARK UNBOUND:                -1.048
REMARK  10 active torsions:
REMARK  status: ('A' for Active; 'I' for Inactive)
REMARK   1   A    between atoms:  C27_1   and   C6_8  
REMARK   2   A    between atoms:  C6_8    and   C5_9  
REMARK   3   A    between atoms:  C5_9    and   C3_12 
REMARK   4   A    between atoms:  C6_8    and   N7_14 
REMARK   5   A    between atoms:  C8_15   and  C10_17 
REMARK   6   A    between atoms: C10_17   and  O11_18 
REMARK   7   A    between atoms: O11_18   and  C12_19 
REMARK   8   A    between atoms: C13_20   and  C14_25 
REMARK   9   A    between atoms: C14_25   and  N15_26 
REMARK   10  A    between atoms: C24_24   and  O25_32 
ROOT
ATOM      1 C27  MOL A   1       5.193 -15.565  -9.419  1.00  0.00    -0.024 A 
ATOM      2 C28  MOL A   1       4.028 -15.252  -8.696  1.00  0.00    -0.057 A 
ATOM      3 C29  MOL A   1       3.017 -14.481  -9.280  1.00  0.00    -0.061 A 
ATOM      4 C30  MOL A   1       3.160 -14.014 -10.590  1.00  0.00    -0.048 A 
ATOM      5 C31  MOL A   1       4.313 -14.321 -11.322  1.00  0.00     0.018 A 
ATOM      6 Br32 MOL A   1       4.498 -13.700 -13.122  1.00  0.00    -0.051 Br
ATOM      7 C33  MOL A   1       5.328 -15.087 -10.738  1.00  0.00    -0.043 A 
ENDROOT
BRANCH   1   8
ATOM      8  C6  MOL A   1       6.312 -16.337  -8.755  1.00  0.00     0.063 C 
BRANCH   8   9
ATOM      9  C5  MOL A   1       7.617 -16.167  -9.554  1.00  0.00     0.051 C 
BRANCH   9  12
ATOM     10  C1  MOL A   1      10.566 -18.569  -8.710  1.00  0.00     0.006 C 
ATOM     11  N2  MOL A   1       9.426 -17.951  -9.373  1.00  0.00    -0.359 N 
ATOM     12  C3  MOL A   1       8.784 -16.787  -8.841  1.00  0.00     0.222 C 
ATOM     13  O4  MOL A   1       9.198 -16.272  -7.766  1.00  0.00    -0.275 OA
ENDBRANCH   9  12
ENDBRANCH   8   9
BRANCH   8  14
ATOM     14  N7  MOL A   1       5.955 -17.756  -8.646  1.00  0.00    -0.346 N 
ATOM     15  C8  MOL A   1       5.191 -18.275  -7.555  1.00  0.00     0.258 C 
ATOM     16  O9  MOL A   1       4.803 -17.512  -6.631  1.00  0.00    -0.271 OA
BRANCH  15  17
ATOM     17 C10  MOL A   1       4.831 -19.730  -7.506  1.00  0.00     0.167 C 
BRANCH  17  18
ATOM     18 O11  MOL A   1       3.442 -19.909  -7.773  1.00  0.00    -0.480 OA
BRANCH  18  19
ATOM     19 C12  MOL A   1       2.970 -20.952  -8.574  1.00  0.00     0.166 A 
ATOM     20 C13  MOL A   1       3.816 -21.600  -9.503  1.00  0.00     0.012 A 
ATOM     21 C21  MOL A   1       3.322 -22.696 -10.231  1.00  0.00    -0.054 A 
ATOM     22 C22  MOL A   1       1.999 -23.110 -10.076  1.00  0.00    -0.058 A 
ATOM     23 C23  MOL A   1       1.152 -22.438  -9.196  1.00  0.00    -0.016 A 
ATOM     24 C24  MOL A   1       1.630 -21.350  -8.441  1.00  0.00     0.161 A 
BRANCH  20  25
ATOM     25 C14  MOL A   1       5.239 -21.146  -9.737  1.00  0.00     0.028 C 
BRANCH  25  26
ATOM     26 N15  MOL A   1       6.030 -22.225 -10.364  1.00  0.00    -0.287 NA
ATOM     27 C16  MOL A   1       7.323 -22.413  -9.685  1.00  0.00     0.064 C 
ATOM     28 C17  MOL A   1       8.109 -21.954 -10.897  1.00  0.00     0.272 C 
ATOM     29 F18  MOL A   1       8.869 -22.954 -11.478  1.00  0.00    -0.204 F 
ATOM     30 F19  MOL A   1       8.798 -20.769 -10.698  1.00  0.00    -0.204 F 
ATOM     31 C20  MOL A   1       6.758 -21.761 -11.557  1.00  0.00     0.064 C 
ENDBRANCH  25  26
ENDBRANCH  20  25
BRANCH  24  32
ATOM     32 O25  MOL A   1       0.811 -20.647  -7.546  1.00  0.00    -0.493 OA
ATOM     33 C26  MOL A   1      -0.415 -20.016  -7.901  1.00  0.00     0.078 C 
ENDBRANCH  24  32
ENDBRANCH  18  19
ENDBRANCH  17  18
ENDBRANCH  15  17
ENDBRANCH   8  14
ENDBRANCH   1   8
TORSDOF 10
ENDMDL
MODEL 81
REMARK VINA RESULT:    -7.774      5.444     10.308
REMARK INTER + INTRA:         -13.367
REMARK INTER:                 -12.520
REMARK INTRA:                  -0.846
REMARK UNBOUND:                -1.048
REMARK  10 active torsions:
REMARK  status: ('A' for Active; 'I' for Inactive)
REMARK   1   A    between atoms:  C27_1   and   C6_8  
REMARK   2   A    between atoms:  C6_8    and   C5_9  
REMARK   3   A    between atoms:  C5_9    and   C3_12 
REMARK   4   A    between atoms:  C6_8    and   N7_14 
REMARK   5   A    between atoms:  C8_15   and  C10_17 
REMARK   6   A    between atoms: C10_17   and  O11_18 
REMARK   7   A    between atoms: O11_18   and  C12_19 
REMARK   8   A    between atoms: C13_20   and  C14_25 
REMARK   9   A    between atoms: C14_25   and  N15_26 
REMARK   10  A    between atoms: C24_24   and  O25_32 
ROOT
ATOM      1 C27  MOL A   1       7.536 -17.112 -10.231  1.00  0.00    -0.024 A 
ATOM      2 C28  MOL A   1       7.881 -17.996 -11.269  1.00  0.00    -0.057 A 
ATOM      3 C29  MOL A   1       7.387 -17.796 -12.563  1.00  0.00    -0.061 A 
ATOM      4 C30  MOL A   1       6.545 -16.714 -12.832  1.00  0.00    -0.048 A 
ATOM      5 C31  MOL A   1       6.196 -15.825 -11.810  1.00  0.00     0.018 A 
ATOM      6 Br32 MOL A   1       5.061 -14.331 -12.184  1.00  0.00    -0.051 Br
ATOM      7 C33  MOL A   1       6.684 -16.025 -10.514  1.00  0.00    -0.043 A 
ENDROOT
BRANCH   1   8
ATOM      8  C6  MOL A   1       8.015 -17.376  -8.820  1.00  0.00     0.063 C 
BRANCH   8   9
ATOM      9  C5  MOL A   1       7.501 -16.277  -7.874  1.00  0.00     0.051 C 
BRANCH   9  12
ATOM     10  C1  MOL A   1       4.025 -15.857  -6.166  1.00  0.00     0.006 C 
ATOM     11  N2  MOL A   1       5.372 -15.596  -6.652  1.00  0.00    -0.359 N 
ATOM     12  C3  MOL A   1       6.117 -16.581  -7.376  1.00  0.00     0.222 C 
ATOM     13  O4  MOL A   1       5.613 -17.714  -7.605  1.00  0.00    -0.275 OA
ENDBRANCH   9  12
ENDBRANCH   8   9
BRANCH   8  14
ATOM     14  N7  MOL A   1       9.480 -17.445  -8.785  1.00  0.00    -0.346 N 
ATOM     15  C8  MOL A   1      10.185 -18.584  -8.289  1.00  0.00     0.258 C 
ATOM     16  O9  MOL A   1       9.553 -19.580  -7.849  1.00  0.00    -0.271 OA
BRANCH  15  17
ATOM     17 C10  MOL A   1      11.684 -18.612  -8.301  1.00  0.00     0.167 C 
BRANCH  17  18
ATOM     18 O11  MOL A   1      12.180 -19.275  -7.140  1.00  0.00    -0.480 OA
BRANCH  18  19
ATOM     19 C12  MOL A   1      13.324 -20.076  -7.176  1.00  0.00     0.166 A 
ATOM     20 C13  MOL A   1      14.595 -19.551  -6.849  1.00  0.00     0.012 A 
ATOM     21 C21  MOL A   1      15.706 -20.410  -6.821  1.00  0.00    -0.054 A 
ATOM     22 C22  MOL A   1      15.568 -21.757  -7.159  1.00  0.00    -0.058 A 
ATOM     23 C23  MOL A   1      14.322 -22.262  -7.530  1.00  0.00    -0.016 A 
ATOM     24 C24  MOL A   1      13.191 -21.425  -7.546  1.00  0.00     0.161 A 
BRANCH  20  25
ATOM     25 C14  MOL A   1      14.793 -18.085  -6.529  1.00  0.00     0.028 C 
BRANCH  25  26
ATOM     26 N15  MOL A   1      15.135 -17.332  -7.752  1.00  0.00    -0.287 NA
ATOM     27 C16  MOL A   1      16.589 -17.137  -7.879  1.00  0.00     0.064 C 
ATOM     28 C17  MOL A   1      16.476 -15.635  -7.708  1.00  0.00     0.272 C 
ATOM     29 F18  MOL A   1      16.815 -14.919  -8.843  1.00  0.00    -0.204 F 
ATOM     30 F19  MOL A   1      17.066 -15.160  -6.548  1.00  0.00    -0.204 F 
ATOM     31 C20  MOL A   1      14.986 -15.878  -7.569  1.00  0.00     0.064 C 
ENDBRANCH  25  26
ENDBRANCH  20  25
BRANCH  24  32
ATOM     32 O25  MOL A   1      11.922 -21.893  -7.914  1.00  0.00    -0.493 OA
ATOM     33 C26  MOL A   1      11.669 -23.176  -8.479  1.00  0.00     0.078 C 
ENDBRANCH  24  32
ENDBRANCH  18  19
ENDBRANCH  17  18
ENDBRANCH  15  17
ENDBRANCH   8  14
ENDBRANCH   1   8
TORSDOF 10
ENDMDL
MODEL 82
REMARK VINA RESULT:    -7.765      5.193      9.853
REMARK INTER + INTRA:         -13.353
REMARK INTER:                 -12.114
REMARK INTRA:                  -1.239
REMARK UNBOUND:                -1.048
REMARK  10 active torsions:
REMARK  status: ('A' for Active; 'I' for Inactive)
REMARK   1   A    between atoms:  C27_1   and   C6_8  
REMARK   2   A    between atoms:  C6_8    and   C5_9  
REMARK   3   A    between atoms:  C5_9    and   C3_12 
REMARK   4   A    between atoms:  C6_8    and   N7_14 
REMARK   5   A    between atoms:  C8_15   and  C10_17 
REMARK   6   A    between atoms: C10_17   and  O11_18 
REMARK   7   A    between atoms: O11_18   and  C12_19 
REMARK   8   A    between atoms: C13_20   and  C14_25 
REMARK   9   A    between atoms: C14_25   and  N15_26 
REMARK   10  A    between atoms: C24_24   and  O25_32 
ROOT
ATOM      1 C27  MOL A   1       6.094 -20.602  -8.499  1.00  0.00    -0.024 A 
ATOM      2 C28  MOL A   1       5.753 -20.672  -7.135  1.00  0.00    -0.057 A 
ATOM      3 C29  MOL A   1       4.572 -21.305  -6.733  1.00  0.00    -0.061 A 
ATOM      4 C30  MOL A   1       3.721 -21.872  -7.685  1.00  0.00    -0.048 A 
ATOM      5 C31  MOL A   1       4.049 -21.811  -9.044  1.00  0.00     0.018 A 
ATOM      6 Br32 MOL A   1       2.894 -22.606 -10.345  1.00  0.00    -0.051 Br
ATOM      7 C33  MOL A   1       5.227 -21.175  -9.451  1.00  0.00    -0.043 A 
ENDROOT
BRANCH   1   8
ATOM      8  C6  MOL A   1       7.336 -19.853  -8.931  1.00  0.00     0.063 C 
BRANCH   8   9
ATOM      9  C5  MOL A   1       7.451 -19.864 -10.466  1.00  0.00     0.051 C 
BRANCH   9  12
ATOM     10  C1  MOL A   1       7.007 -16.003 -10.725  1.00  0.00     0.006 C 
ATOM     11  N2  MOL A   1       7.040 -17.364 -10.209  1.00  0.00    -0.359 N 
ATOM     12  C3  MOL A   1       7.417 -18.474 -11.031  1.00  0.00     0.222 C 
ATOM     13  O4  MOL A   1       7.728 -18.289 -12.239  1.00  0.00    -0.275 OA
ENDBRANCH   9  12
ENDBRANCH   8   9
BRANCH   8  14
ATOM     14  N7  MOL A   1       8.528 -20.450  -8.319  1.00  0.00    -0.346 N 
ATOM     15  C8  MOL A   1       9.665 -19.675  -7.935  1.00  0.00     0.258 C 
ATOM     16  O9  MOL A   1       9.679 -18.429  -8.125  1.00  0.00    -0.271 OA
BRANCH  15  17
ATOM     17 C10  MOL A   1      10.848 -20.332  -7.289  1.00  0.00     0.167 C 
BRANCH  17  18
ATOM     18 O11  MOL A   1      12.012 -20.169  -8.096  1.00  0.00    -0.480 OA
BRANCH  18  19
ATOM     19 C12  MOL A   1      13.283 -20.537  -7.647  1.00  0.00     0.166 A 
ATOM     20 C13  MOL A   1      14.205 -19.569  -7.189  1.00  0.00     0.012 A 
ATOM     21 C21  MOL A   1      15.442 -19.990  -6.673  1.00  0.00    -0.054 A 
ATOM     22 C22  MOL A   1      15.778 -21.344  -6.656  1.00  0.00    -0.058 A 
ATOM     23 C23  MOL A   1      14.886 -22.294  -7.155  1.00  0.00    -0.016 A 
ATOM     24 C24  MOL A   1      13.633 -21.897  -7.659  1.00  0.00     0.161 A 
BRANCH  20  25
ATOM     25 C14  MOL A   1      13.898 -18.088  -7.241  1.00  0.00     0.028 C 
BRANCH  25  26
ATOM     26 N15  MOL A   1      15.133 -17.299  -7.061  1.00  0.00    -0.287 NA
ATOM     27 C16  MOL A   1      14.846 -15.957  -6.525  1.00  0.00     0.064 C 
ATOM     28 C17  MOL A   1      15.307 -15.271  -7.796  1.00  0.00     0.272 C 
ATOM     29 F18  MOL A   1      16.452 -14.511  -7.632  1.00  0.00    -0.204 F 
ATOM     30 F19  MOL A   1      14.293 -14.617  -8.476  1.00  0.00    -0.204 F 
ATOM     31 C20  MOL A   1      15.578 -16.669  -8.316  1.00  0.00     0.064 C 
ENDBRANCH  25  26
ENDBRANCH  20  25
BRANCH  24  32
ATOM     32 O25  MOL A   1      12.710 -22.820  -8.170  1.00  0.00    -0.493 OA
ATOM     33 C26  MOL A   1      12.127 -23.878  -7.417  1.00  0.00     0.078 C 
ENDBRANCH  24  32
ENDBRANCH  18  19
ENDBRANCH  17  18
ENDBRANCH  15  17
ENDBRANCH   8  14
ENDBRANCH   1   8
TORSDOF 10
ENDMDL
MODEL 83
REMARK VINA RESULT:    -7.757      6.221     10.652
REMARK INTER + INTRA:         -13.340
REMARK INTER:                 -12.218
REMARK INTRA:                  -1.122
REMARK UNBOUND:                -1.048
REMARK  10 active torsions:
REMARK  status: ('A' for Active; 'I' for Inactive)
REMARK   1   A    between atoms:  C27_1   and   C6_8  
REMARK   2   A    between atoms:  C6_8    and   C5_9  
REMARK   3   A    between atoms:  C5_9    and   C3_12 
REMARK   4   A    between atoms:  C6_8    and   N7_14 
REMARK   5   A    between atoms:  C8_15   and  C10_17 
REMARK   6   A    between atoms: C10_17   and  O11_18 
REMARK   7   A    between atoms: O11_18   and  C12_19 
REMARK   8   A    between atoms: C13_20   and  C14_25 
REMARK   9   A    between atoms: C14_25   and  N15_26 
REMARK   10  A    between atoms: C24_24   and  O25_32 
ROOT
ATOM      1 C27  MOL A   1       9.343 -18.637  -9.463  1.00  0.00    -0.024 A 
ATOM      2 C28  MOL A   1       9.300 -17.677  -8.436  1.00  0.00    -0.057 A 
ATOM      3 C29  MOL A   1       8.517 -16.526  -8.575  1.00  0.00    -0.061 A 
ATOM      4 C30  MOL A   1       7.770 -16.322  -9.739  1.00  0.00    -0.048 A 
ATOM      5 C31  MOL A   1       7.801 -17.271 -10.767  1.00  0.00     0.018 A 
ATOM      6 Br32 MOL A   1       6.762 -17.002 -12.350  1.00  0.00    -0.051 Br
ATOM      7 C33  MOL A   1       8.587 -18.420 -10.633  1.00  0.00    -0.043 A 
ENDROOT
BRANCH   1   8
ATOM      8  C6  MOL A   1      10.248 -19.843  -9.335  1.00  0.00     0.063 C 
BRANCH   8   9
ATOM      9  C5  MOL A   1       9.422 -21.085  -8.958  1.00  0.00     0.051 C 
BRANCH   9  12
ATOM     10  C1  MOL A   1      10.723 -24.507 -10.289  1.00  0.00     0.006 C 
ATOM     11  N2  MOL A   1      10.442 -23.373  -9.421  1.00  0.00    -0.359 N 
ATOM     12  C3  MOL A   1       9.704 -22.235  -9.881  1.00  0.00     0.222 C 
ATOM     13  O4  MOL A   1       9.282 -22.194 -11.069  1.00  0.00    -0.275 OA
ENDBRANCH   9  12
ENDBRANCH   8   9
BRANCH   8  14
ATOM     14  N7  MOL A   1      11.290 -19.592  -8.333  1.00  0.00    -0.346 N 
ATOM     15  C8  MOL A   1      12.536 -18.972  -8.658  1.00  0.00     0.258 C 
ATOM     16  O9  MOL A   1      12.783 -18.625  -9.843  1.00  0.00    -0.271 OA
BRANCH  15  17
ATOM     17 C10  MOL A   1      13.556 -18.715  -7.590  1.00  0.00     0.167 C 
BRANCH  17  18
ATOM     18 O11  MOL A   1      14.852 -19.111  -8.032  1.00  0.00    -0.480 OA
BRANCH  18  19
ATOM     19 C12  MOL A   1      16.001 -18.869  -7.273  1.00  0.00     0.166 A 
ATOM     20 C13  MOL A   1      16.615 -17.596  -7.263  1.00  0.00     0.012 A 
ATOM     21 C21  MOL A   1      17.721 -17.376  -6.425  1.00  0.00    -0.054 A 
ATOM     22 C22  MOL A   1      18.238 -18.412  -5.648  1.00  0.00    -0.058 A 
ATOM     23 C23  MOL A   1      17.661 -19.681  -5.697  1.00  0.00    -0.016 A 
ATOM     24 C24  MOL A   1      16.540 -19.920  -6.514  1.00  0.00     0.161 A 
BRANCH  20  25
ATOM     25 C14  MOL A   1      16.116 -16.464  -8.133  1.00  0.00     0.028 C 
BRANCH  25  26
ATOM     26 N15  MOL A   1      15.864 -15.259  -7.316  1.00  0.00    -0.287 NA
ATOM     27 C16  MOL A   1      15.057 -15.571  -6.125  1.00  0.00     0.064 C 
ATOM     28 C17  MOL A   1      13.881 -14.751  -6.616  1.00  0.00     0.272 C 
ATOM     29 F18  MOL A   1      13.624 -13.631  -5.845  1.00  0.00    -0.204 F 
ATOM     30 F19  MOL A   1      12.755 -15.506  -6.902  1.00  0.00    -0.204 F 
ATOM     31 C20  MOL A   1      14.737 -14.463  -7.833  1.00  0.00     0.064 C 
ENDBRANCH  25  26
ENDBRANCH  20  25
BRANCH  24  32
ATOM     32 O25  MOL A   1      15.931 -21.181  -6.592  1.00  0.00    -0.493 OA
ATOM     33 C26  MOL A   1      16.623 -22.395  -6.866  1.00  0.00     0.078 C 
ENDBRANCH  24  32
ENDBRANCH  18  19
ENDBRANCH  17  18
ENDBRANCH  15  17
ENDBRANCH   8  14
ENDBRANCH   1   8
TORSDOF 10
ENDMDL
MODEL 84
REMARK VINA RESULT:    -7.756      4.288      6.201
REMARK INTER + INTRA:         -13.338
REMARK INTER:                 -12.772
REMARK INTRA:                  -0.566
REMARK UNBOUND:                -1.048
REMARK  10 active torsions:
REMARK  status: ('A' for Active; 'I' for Inactive)
REMARK   1   A    between atoms:  C27_1   and   C6_8  
REMARK   2   A    between atoms:  C6_8    and   C5_9  
REMARK   3   A    between atoms:  C5_9    and   C3_12 
REMARK   4   A    between atoms:  C6_8    and   N7_14 
REMARK   5   A    between atoms:  C8_15   and  C10_17 
REMARK   6   A    between atoms: C10_17   and  O11_18 
REMARK   7   A    between atoms: O11_18   and  C12_19 
REMARK   8   A    between atoms: C13_20   and  C14_25 
REMARK   9   A    between atoms: C14_25   and  N15_26 
REMARK   10  A    between atoms: C24_24   and  O25_32 
ROOT
ATOM      1 C27  MOL A   1       4.224 -21.514  -9.136  1.00  0.00    -0.024 A 
ATOM      2 C28  MOL A   1       3.879 -20.739  -8.014  1.00  0.00    -0.057 A 
ATOM      3 C29  MOL A   1       2.539 -20.602  -7.634  1.00  0.00    -0.061 A 
ATOM      4 C30  MOL A   1       1.533 -21.235  -8.368  1.00  0.00    -0.048 A 
ATOM      5 C31  MOL A   1       1.863 -22.012  -9.484  1.00  0.00     0.018 A 
ATOM      6 Br32 MOL A   1       0.487 -22.897 -10.476  1.00  0.00    -0.051 Br
ATOM      7 C33  MOL A   1       3.200 -22.147  -9.871  1.00  0.00    -0.043 A 
ENDROOT
BRANCH   1   8
ATOM      8  C6  MOL A   1       5.667 -21.598  -9.583  1.00  0.00     0.063 C 
BRANCH   8   9
ATOM      9  C5  MOL A   1       6.572 -21.931  -8.384  1.00  0.00     0.051 C 
BRANCH   9  12
ATOM     10  C1  MOL A   1      10.416 -21.652  -8.951  1.00  0.00     0.006 C 
ATOM     11  N2  MOL A   1       9.049 -21.358  -8.547  1.00  0.00    -0.359 N 
ATOM     12  C3  MOL A   1       7.970 -22.258  -8.823  1.00  0.00     0.222 C 
ATOM     13  O4  MOL A   1       8.189 -23.338  -9.437  1.00  0.00    -0.275 OA
ENDBRANCH   9  12
ENDBRANCH   8   9
BRANCH   8  14
ATOM     14  N7  MOL A   1       6.080 -20.337 -10.208  1.00  0.00    -0.346 N 
ATOM     15  C8  MOL A   1       6.883 -20.290 -11.390  1.00  0.00     0.258 C 
ATOM     16  O9  MOL A   1       7.275 -21.357 -11.933  1.00  0.00    -0.271 OA
BRANCH  15  17
ATOM     17 C10  MOL A   1       7.254 -18.974 -12.002  1.00  0.00     0.167 C 
BRANCH  17  18
ATOM     18 O11  MOL A   1       7.140 -17.926 -11.042  1.00  0.00    -0.480 OA
BRANCH  18  19
ATOM     19 C12  MOL A   1       8.128 -17.691 -10.081  1.00  0.00     0.166 A 
ATOM     20 C13  MOL A   1       7.834 -16.995  -8.886  1.00  0.00     0.012 A 
ATOM     21 C21  MOL A   1       8.837 -16.850  -7.913  1.00  0.00    -0.054 A 
ATOM     22 C22  MOL A   1      10.122 -17.343  -8.142  1.00  0.00    -0.058 A 
ATOM     23 C23  MOL A   1      10.423 -17.985  -9.343  1.00  0.00    -0.016 A 
ATOM     24 C24  MOL A   1       9.429 -18.160 -10.324  1.00  0.00     0.161 A 
BRANCH  20  25
ATOM     25 C14  MOL A   1       6.468 -16.400  -8.626  1.00  0.00     0.028 C 
BRANCH  25  26
ATOM     26 N15  MOL A   1       6.102 -16.550  -7.202  1.00  0.00    -0.287 NA
ATOM     27 C16  MOL A   1       4.751 -17.115  -7.047  1.00  0.00     0.064 C 
ATOM     28 C17  MOL A   1       4.209 -15.841  -6.431  1.00  0.00     0.272 C 
ATOM     29 F18  MOL A   1       3.845 -15.977  -5.103  1.00  0.00    -0.204 F 
ATOM     30 F19  MOL A   1       3.258 -15.205  -7.212  1.00  0.00    -0.204 F 
ATOM     31 C20  MOL A   1       5.609 -15.290  -6.620  1.00  0.00     0.064 C 
ENDBRANCH  25  26
ENDBRANCH  20  25
BRANCH  24  32
ATOM     32 O25  MOL A   1       9.691 -18.799 -11.545  1.00  0.00    -0.493 OA
ATOM     33 C26  MOL A   1      10.943 -18.760 -12.222  1.00  0.00     0.078 C 
ENDBRANCH  24  32
ENDBRANCH  18  19
ENDBRANCH  17  18
ENDBRANCH  15  17
ENDBRANCH   8  14
ENDBRANCH   1   8
TORSDOF 10
ENDMDL
MODEL 85
REMARK VINA RESULT:    -7.755      6.753     11.115
REMARK INTER + INTRA:         -13.337
REMARK INTER:                 -11.773
REMARK INTRA:                  -1.564
REMARK UNBOUND:                -1.048
REMARK  10 active torsions:
REMARK  status: ('A' for Active; 'I' for Inactive)
REMARK   1   A    between atoms:  C27_1   and   C6_8  
REMARK   2   A    between atoms:  C6_8    and   C5_9  
REMARK   3   A    between atoms:  C5_9    and   C3_12 
REMARK   4   A    between atoms:  C6_8    and   N7_14 
REMARK   5   A    between atoms:  C8_15   and  C10_17 
REMARK   6   A    between atoms: C10_17   and  O11_18 
REMARK   7   A    between atoms: O11_18   and  C12_19 
REMARK   8   A    between atoms: C13_20   and  C14_25 
REMARK   9   A    between atoms: C14_25   and  N15_26 
REMARK   10  A    between atoms: C24_24   and  O25_32 
ROOT
ATOM      1 C27  MOL A   1       9.823 -17.448  -8.519  1.00  0.00    -0.024 A 
ATOM      2 C28  MOL A   1       9.092 -16.443  -7.858  1.00  0.00    -0.057 A 
ATOM      3 C29  MOL A   1       7.900 -15.958  -8.407  1.00  0.00    -0.061 A 
ATOM      4 C30  MOL A   1       7.427 -16.469  -9.619  1.00  0.00    -0.048 A 
ATOM      5 C31  MOL A   1       8.142 -17.471 -10.285  1.00  0.00     0.018 A 
ATOM      6 Br32 MOL A   1       7.483 -18.186 -11.932  1.00  0.00    -0.051 Br
ATOM      7 C33  MOL A   1       9.337 -17.955  -9.741  1.00  0.00    -0.043 A 
ENDROOT
BRANCH   1   8
ATOM      8  C6  MOL A   1      11.147 -17.915  -7.955  1.00  0.00     0.063 C 
BRANCH   8   9
ATOM      9  C5  MOL A   1      10.994 -19.320  -7.345  1.00  0.00     0.051 C 
BRANCH   9  12
ATOM     10  C1  MOL A   1      14.553 -20.629  -8.237  1.00  0.00     0.006 C 
ATOM     11  N2  MOL A   1      13.455 -19.765  -7.828  1.00  0.00    -0.359 N 
ATOM     12  C3  MOL A   1      12.103 -20.234  -7.780  1.00  0.00     0.222 C 
ATOM     13  O4  MOL A   1      11.834 -21.423  -8.102  1.00  0.00    -0.275 OA
ENDBRANCH   9  12
ENDBRANCH   8   9
BRANCH   8  14
ATOM     14  N7  MOL A   1      11.635 -16.966  -6.950  1.00  0.00    -0.346 N 
ATOM     15  C8  MOL A   1      12.849 -16.229  -7.113  1.00  0.00     0.258 C 
ATOM     16  O9  MOL A   1      13.554 -16.386  -8.145  1.00  0.00    -0.271 OA
BRANCH  15  17
ATOM     17 C10  MOL A   1      13.289 -15.250  -6.066  1.00  0.00     0.167 C 
BRANCH  17  18
ATOM     18 O11  MOL A   1      14.708 -15.117  -6.073  1.00  0.00    -0.480 OA
BRANCH  18  19
ATOM     19 C12  MOL A   1      15.509 -15.662  -5.065  1.00  0.00     0.166 A 
ATOM     20 C13  MOL A   1      16.317 -16.796  -5.308  1.00  0.00     0.012 A 
ATOM     21 C21  MOL A   1      17.166 -17.263  -4.290  1.00  0.00    -0.054 A 
ATOM     22 C22  MOL A   1      17.178 -16.646  -3.039  1.00  0.00    -0.058 A 
ATOM     23 C23  MOL A   1      16.342 -15.558  -2.786  1.00  0.00    -0.016 A 
ATOM     24 C24  MOL A   1      15.498 -15.060  -3.796  1.00  0.00     0.161 A 
BRANCH  20  25
ATOM     25 C14  MOL A   1      16.292 -17.524  -6.634  1.00  0.00     0.028 C 
BRANCH  25  26
ATOM     26 N15  MOL A   1      17.434 -17.107  -7.473  1.00  0.00    -0.287 NA
ATOM     27 C16  MOL A   1      16.989 -16.367  -8.666  1.00  0.00     0.064 C 
ATOM     28 C17  MOL A   1      17.468 -17.454  -9.608  1.00  0.00     0.272 C 
ATOM     29 F18  MOL A   1      18.524 -17.065 -10.413  1.00  0.00    -0.204 F 
ATOM     30 F19  MOL A   1      16.444 -18.088 -10.293  1.00  0.00    -0.204 F 
ATOM     31 C20  MOL A   1      17.900 -18.190  -8.355  1.00  0.00     0.064 C 
ENDBRANCH  25  26
ENDBRANCH  20  25
BRANCH  24  32
ATOM     32 O25  MOL A   1      14.643 -13.969  -3.583  1.00  0.00    -0.493 OA
ATOM     33 C26  MOL A   1      13.959 -13.709  -2.362  1.00  0.00     0.078 C 
ENDBRANCH  24  32
ENDBRANCH  18  19
ENDBRANCH  17  18
ENDBRANCH  15  17
ENDBRANCH   8  14
ENDBRANCH   1   8
TORSDOF 10
ENDMDL
MODEL 86
REMARK VINA RESULT:    -7.752      6.474     11.077
REMARK INTER + INTRA:         -13.333
REMARK INTER:                 -12.022
REMARK INTRA:                  -1.311
REMARK UNBOUND:                -1.048
REMARK  10 active torsions:
REMARK  status: ('A' for Active; 'I' for Inactive)
REMARK   1   A    between atoms:  C27_1   and   C6_8  
REMARK   2   A    between atoms:  C6_8    and   C5_9  
REMARK   3   A    between atoms:  C5_9    and   C3_12 
REMARK   4   A    between atoms:  C6_8    and   N7_14 
REMARK   5   A    between atoms:  C8_15   and  C10_17 
REMARK   6   A    between atoms: C10_17   and  O11_18 
REMARK   7   A    between atoms: O11_18   and  C12_19 
REMARK   8   A    between atoms: C13_20   and  C14_25 
REMARK   9   A    between atoms: C14_25   and  N15_26 
REMARK   10  A    between atoms: C24_24   and  O25_32 
ROOT
ATOM      1 C27  MOL A   1       9.591 -18.230  -9.158  1.00  0.00    -0.024 A 
ATOM      2 C28  MOL A   1       9.245 -17.231  -8.230  1.00  0.00    -0.057 A 
ATOM      3 C29  MOL A   1       8.254 -16.292  -8.538  1.00  0.00    -0.061 A 
ATOM      4 C30  MOL A   1       7.600 -16.342  -9.772  1.00  0.00    -0.048 A 
ATOM      5 C31  MOL A   1       7.932 -17.333 -10.702  1.00  0.00     0.018 A 
ATOM      6 Br32 MOL A   1       7.021 -17.413 -12.383  1.00  0.00    -0.051 Br
ATOM      7 C33  MOL A   1       8.926 -18.270 -10.400  1.00  0.00    -0.043 A 
ENDROOT
BRANCH   1   8
ATOM      8  C6  MOL A   1      10.713 -19.197  -8.847  1.00  0.00     0.063 C 
BRANCH   8   9
ATOM      9  C5  MOL A   1      10.152 -20.454  -8.160  1.00  0.00     0.051 C 
BRANCH   9  12
ATOM     10  C1  MOL A   1       9.438 -22.826 -11.166  1.00  0.00     0.006 C 
ATOM     11  N2  MOL A   1       9.404 -21.688 -10.259  1.00  0.00    -0.359 N 
ATOM     12  C3  MOL A   1      10.201 -21.647  -9.070  1.00  0.00     0.222 C 
ATOM     13  O4  MOL A   1      10.954 -22.616  -8.780  1.00  0.00    -0.275 OA
ENDBRANCH   9  12
ENDBRANCH   8   9
BRANCH   8  14
ATOM     14  N7  MOL A   1      11.720 -18.550  -7.997  1.00  0.00    -0.346 N 
ATOM     15  C8  MOL A   1      13.051 -18.287  -8.446  1.00  0.00     0.258 C 
ATOM     16  O9  MOL A   1      13.407 -18.621  -9.607  1.00  0.00    -0.271 OA
BRANCH  15  17
ATOM     17 C10  MOL A   1      14.033 -17.600  -7.545  1.00  0.00     0.167 C 
BRANCH  17  18
ATOM     18 O11  MOL A   1      14.633 -18.537  -6.654  1.00  0.00    -0.480 OA
BRANCH  18  19
ATOM     19 C12  MOL A   1      15.981 -18.460  -6.295  1.00  0.00     0.166 A 
ATOM     20 C13  MOL A   1      16.382 -17.855  -5.082  1.00  0.00     0.012 A 
ATOM     21 C21  MOL A   1      17.740 -17.870  -4.724  1.00  0.00    -0.054 A 
ATOM     22 C22  MOL A   1      18.691 -18.432  -5.577  1.00  0.00    -0.058 A 
ATOM     23 C23  MOL A   1      18.299 -18.984  -6.797  1.00  0.00    -0.016 A 
ATOM     24 C24  MOL A   1      16.941 -18.998  -7.167  1.00  0.00     0.161 A 
BRANCH  20  25
ATOM     25 C14  MOL A   1      15.387 -17.189  -4.157  1.00  0.00     0.028 C 
BRANCH  25  26
ATOM     26 N15  MOL A   1      15.556 -15.722  -4.189  1.00  0.00    -0.287 NA
ATOM     27 C16  MOL A   1      15.048 -15.091  -2.958  1.00  0.00     0.064 C 
ATOM     28 C17  MOL A   1      13.933 -14.377  -3.696  1.00  0.00     0.272 C 
ATOM     29 F18  MOL A   1      14.072 -13.000  -3.714  1.00  0.00    -0.204 F 
ATOM     30 F19  MOL A   1      12.665 -14.809  -3.345  1.00  0.00    -0.204 F 
ATOM     31 C20  MOL A   1      14.477 -15.055  -4.939  1.00  0.00     0.064 C 
ENDBRANCH  25  26
ENDBRANCH  20  25
BRANCH  24  32
ATOM     32 O25  MOL A   1      16.507 -19.541  -8.385  1.00  0.00    -0.493 OA
ATOM     33 C26  MOL A   1      17.335 -19.718  -9.530  1.00  0.00     0.078 C 
ENDBRANCH  24  32
ENDBRANCH  18  19
ENDBRANCH  17  18
ENDBRANCH  15  17
ENDBRANCH   8  14
ENDBRANCH   1   8
TORSDOF 10
ENDMDL
MODEL 87
REMARK VINA RESULT:    -7.748      5.320     10.057
REMARK INTER + INTRA:         -13.326
REMARK INTER:                 -11.927
REMARK INTRA:                  -1.399
REMARK UNBOUND:                -1.048
REMARK  10 active torsions:
REMARK  status: ('A' for Active; 'I' for Inactive)
REMARK   1   A    between atoms:  C27_1   and   C6_8  
REMARK   2   A    between atoms:  C6_8    and   C5_9  
REMARK   3   A    between atoms:  C5_9    and   C3_12 
REMARK   4   A    between atoms:  C6_8    and   N7_14 
REMARK   5   A    between atoms:  C8_15   and  C10_17 
REMARK   6   A    between atoms: C10_17   and  O11_18 
REMARK   7   A    between atoms: O11_18   and  C12_19 
REMARK   8   A    between atoms: C13_20   and  C14_25 
REMARK   9   A    between atoms: C14_25   and  N15_26 
REMARK   10  A    between atoms: C24_24   and  O25_32 
ROOT
ATOM      1 C27  MOL A   1       7.775 -18.063  -9.336  1.00  0.00    -0.024 A 
ATOM      2 C28  MOL A   1       7.739 -17.315 -10.527  1.00  0.00    -0.057 A 
ATOM      3 C29  MOL A   1       6.839 -16.253 -10.668  1.00  0.00    -0.061 A 
ATOM      4 C30  MOL A   1       5.968 -15.929  -9.625  1.00  0.00    -0.048 A 
ATOM      5 C31  MOL A   1       5.996 -16.663  -8.434  1.00  0.00     0.018 A 
ATOM      6 Br32 MOL A   1       4.818 -16.205  -6.998  1.00  0.00    -0.051 Br
ATOM      7 C33  MOL A   1       6.891 -17.729  -8.291  1.00  0.00    -0.043 A 
ENDROOT
BRANCH   1   8
ATOM      8  C6  MOL A   1       8.701 -19.255  -9.219  1.00  0.00     0.063 C 
BRANCH   8   9
ATOM      9  C5  MOL A   1       8.018 -20.375  -8.414  1.00  0.00     0.051 C 
BRANCH   9  12
ATOM     10  C1  MOL A   1       4.888 -21.935 -10.131  1.00  0.00     0.006 C 
ATOM     11  N2  MOL A   1       5.740 -21.114  -9.283  1.00  0.00    -0.359 N 
ATOM     12  C3  MOL A   1       7.166 -21.245  -9.293  1.00  0.00     0.222 C 
ATOM     13  O4  MOL A   1       7.718 -22.093 -10.046  1.00  0.00    -0.275 OA
ENDBRANCH   9  12
ENDBRANCH   8   9
BRANCH   8  14
ATOM     14  N7  MOL A   1       9.962 -18.858  -8.585  1.00  0.00    -0.346 N 
ATOM     15  C8  MOL A   1      11.165 -18.652  -9.328  1.00  0.00     0.258 C 
ATOM     16  O9  MOL A   1      11.177 -18.819 -10.577  1.00  0.00    -0.271 OA
BRANCH  15  17
ATOM     17 C10  MOL A   1      12.422 -18.221  -8.633  1.00  0.00     0.167 C 
BRANCH  17  18
ATOM     18 O11  MOL A   1      12.565 -18.906  -7.391  1.00  0.00    -0.480 OA
BRANCH  18  19
ATOM     19 C12  MOL A   1      13.767 -19.506  -7.009  1.00  0.00     0.166 A 
ATOM     20 C13  MOL A   1      14.741 -18.791  -6.276  1.00  0.00     0.012 A 
ATOM     21 C21  MOL A   1      15.901 -19.457  -5.844  1.00  0.00    -0.054 A 
ATOM     22 C22  MOL A   1      16.113 -20.795  -6.176  1.00  0.00    -0.058 A 
ATOM     23 C23  MOL A   1      15.174 -21.485  -6.942  1.00  0.00    -0.016 A 
ATOM     24 C24  MOL A   1      13.995 -20.845  -7.369  1.00  0.00     0.161 A 
BRANCH  20  25
ATOM     25 C14  MOL A   1      14.570 -17.325  -5.943  1.00  0.00     0.028 C 
BRANCH  25  26
ATOM     26 N15  MOL A   1      15.749 -16.554  -6.390  1.00  0.00    -0.287 NA
ATOM     27 C16  MOL A   1      15.571 -15.110  -6.159  1.00  0.00     0.064 C 
ATOM     28 C17  MOL A   1      15.556 -14.800  -7.643  1.00  0.00     0.272 C 
ATOM     29 F18  MOL A   1      16.646 -14.060  -8.067  1.00  0.00    -0.204 F 
ATOM     30 F19  MOL A   1      14.339 -14.320  -8.099  1.00  0.00    -0.204 F 
ATOM     31 C20  MOL A   1      15.726 -16.294  -7.840  1.00  0.00     0.064 C 
ENDBRANCH  25  26
ENDBRANCH  20  25
BRANCH  24  32
ATOM     32 O25  MOL A   1      13.027 -21.502  -8.141  1.00  0.00    -0.493 OA
ATOM     33 C26  MOL A   1      11.918 -22.217  -7.606  1.00  0.00     0.078 C 
ENDBRANCH  24  32
ENDBRANCH  18  19
ENDBRANCH  17  18
ENDBRANCH  15  17
ENDBRANCH   8  14
ENDBRANCH   1   8
TORSDOF 10
ENDMDL
MODEL 88
REMARK VINA RESULT:    -7.746      5.339     10.278
REMARK INTER + INTRA:         -13.323
REMARK INTER:                 -12.593
REMARK INTRA:                  -0.730
REMARK UNBOUND:                -1.048
REMARK  10 active torsions:
REMARK  status: ('A' for Active; 'I' for Inactive)
REMARK   1   A    between atoms:  C27_1   and   C6_8  
REMARK   2   A    between atoms:  C6_8    and   C5_9  
REMARK   3   A    between atoms:  C5_9    and   C3_12 
REMARK   4   A    between atoms:  C6_8    and   N7_14 
REMARK   5   A    between atoms:  C8_15   and  C10_17 
REMARK   6   A    between atoms: C10_17   and  O11_18 
REMARK   7   A    between atoms: O11_18   and  C12_19 
REMARK   8   A    between atoms: C13_20   and  C14_25 
REMARK   9   A    between atoms: C14_25   and  N15_26 
REMARK   10  A    between atoms: C24_24   and  O25_32 
ROOT
ATOM      1 C27  MOL A   1       7.279 -16.835 -10.514  1.00  0.00    -0.024 A 
ATOM      2 C28  MOL A   1       7.394 -17.552 -11.718  1.00  0.00    -0.057 A 
ATOM      3 C29  MOL A   1       6.744 -17.105 -12.873  1.00  0.00    -0.061 A 
ATOM      4 C30  MOL A   1       5.973 -15.939 -12.837  1.00  0.00    -0.048 A 
ATOM      5 C31  MOL A   1       5.853 -15.214 -11.646  1.00  0.00     0.018 A 
ATOM      6 Br32 MOL A   1       4.816 -13.607 -11.604  1.00  0.00    -0.051 Br
ATOM      7 C33  MOL A   1       6.498 -15.662 -10.489  1.00  0.00    -0.043 A 
ENDROOT
BRANCH   1   8
ATOM      8  C6  MOL A   1       7.926 -17.364  -9.252  1.00  0.00     0.063 C 
BRANCH   8   9
ATOM      9  C5  MOL A   1       7.599 -16.441  -8.064  1.00  0.00     0.051 C 
BRANCH   9  12
ATOM     10  C1  MOL A   1       4.200 -15.939  -6.228  1.00  0.00     0.006 C 
ATOM     11  N2  MOL A   1       5.536 -15.712  -6.761  1.00  0.00    -0.359 N 
ATOM     12  C3  MOL A   1       6.226 -16.711  -7.520  1.00  0.00     0.222 C 
ATOM     13  O4  MOL A   1       5.681 -17.827  -7.738  1.00  0.00    -0.275 OA
ENDBRANCH   9  12
ENDBRANCH   8   9
BRANCH   8  14
ATOM     14  N7  MOL A   1       9.377 -17.478  -9.434  1.00  0.00    -0.346 N 
ATOM     15  C8  MOL A   1      10.126 -18.600  -8.964  1.00  0.00     0.258 C 
ATOM     16  O9  MOL A   1       9.547 -19.541  -8.357  1.00  0.00    -0.271 OA
BRANCH  15  17
ATOM     17 C10  MOL A   1      11.604 -18.678  -9.199  1.00  0.00     0.167 C 
BRANCH  17  18
ATOM     18 O11  MOL A   1      12.276 -19.107  -8.017  1.00  0.00    -0.480 OA
BRANCH  18  19
ATOM     19 C12  MOL A   1      13.416 -19.914  -8.064  1.00  0.00     0.166 A 
ATOM     20 C13  MOL A   1      14.702 -19.353  -8.241  1.00  0.00     0.012 A 
ATOM     21 C21  MOL A   1      15.828 -20.192  -8.202  1.00  0.00    -0.054 A 
ATOM     22 C22  MOL A   1      15.678 -21.569  -8.040  1.00  0.00    -0.058 A 
ATOM     23 C23  MOL A   1      14.405 -22.127  -7.915  1.00  0.00    -0.016 A 
ATOM     24 C24  MOL A   1      13.264 -21.304  -7.931  1.00  0.00     0.161 A 
BRANCH  20  25
ATOM     25 C14  MOL A   1      14.899 -17.871  -8.473  1.00  0.00     0.028 C 
BRANCH  25  26
ATOM     26 N15  MOL A   1      15.616 -17.261  -7.334  1.00  0.00    -0.287 NA
ATOM     27 C16  MOL A   1      15.246 -15.847  -7.155  1.00  0.00     0.064 C 
ATOM     28 C17  MOL A   1      16.636 -15.361  -7.515  1.00  0.00     0.272 C 
ATOM     29 F18  MOL A   1      17.308 -14.770  -6.459  1.00  0.00    -0.204 F 
ATOM     30 F19  MOL A   1      16.685 -14.631  -8.691  1.00  0.00    -0.204 F 
ATOM     31 C20  MOL A   1      16.975 -16.827  -7.702  1.00  0.00     0.064 C 
ENDBRANCH  25  26
ENDBRANCH  20  25
BRANCH  24  32
ATOM     32 O25  MOL A   1      11.968 -21.824  -7.810  1.00  0.00    -0.493 OA
ATOM     33 C26  MOL A   1      11.558 -23.092  -8.313  1.00  0.00     0.078 C 
ENDBRANCH  24  32
ENDBRANCH  18  19
ENDBRANCH  17  18
ENDBRANCH  15  17
ENDBRANCH   8  14
ENDBRANCH   1   8
TORSDOF 10
ENDMDL
MODEL 89
REMARK VINA RESULT:    -7.733      5.281     10.301
REMARK INTER + INTRA:         -13.301
REMARK INTER:                 -11.832
REMARK INTRA:                  -1.469
REMARK UNBOUND:                -1.048
REMARK  10 active torsions:
REMARK  status: ('A' for Active; 'I' for Inactive)
REMARK   1   A    between atoms:  C27_1   and   C6_8  
REMARK   2   A    between atoms:  C6_8    and   C5_9  
REMARK   3   A    between atoms:  C5_9    and   C3_12 
REMARK   4   A    between atoms:  C6_8    and   N7_14 
REMARK   5   A    between atoms:  C8_15   and  C10_17 
REMARK   6   A    between atoms: C10_17   and  O11_18 
REMARK   7   A    between atoms: O11_18   and  C12_19 
REMARK   8   A    between atoms: C13_20   and  C14_25 
REMARK   9   A    between atoms: C14_25   and  N15_26 
REMARK   10  A    between atoms: C24_24   and  O25_32 
ROOT
ATOM      1 C27  MOL A   1       7.057 -19.178  -9.931  1.00  0.00    -0.024 A 
ATOM      2 C28  MOL A   1       7.062 -20.056 -11.030  1.00  0.00    -0.057 A 
ATOM      3 C29  MOL A   1       6.387 -21.279 -10.961  1.00  0.00    -0.061 A 
ATOM      4 C30  MOL A   1       5.703 -21.638  -9.797  1.00  0.00    -0.048 A 
ATOM      5 C31  MOL A   1       5.688 -20.773  -8.697  1.00  0.00     0.018 A 
ATOM      6 Br32 MOL A   1       4.732 -21.255  -7.111  1.00  0.00    -0.051 Br
ATOM      7 C33  MOL A   1       6.365 -19.551  -8.761  1.00  0.00    -0.043 A 
ENDROOT
BRANCH   1   8
ATOM      8  C6  MOL A   1       7.850 -17.890  -9.987  1.00  0.00     0.063 C 
BRANCH   8   9
ATOM      9  C5  MOL A   1       7.448 -17.078 -11.232  1.00  0.00     0.051 C 
BRANCH   9  12
ATOM     10  C1  MOL A   1       4.674 -14.382 -11.696  1.00  0.00     0.006 C 
ATOM     11  N2  MOL A   1       5.743 -15.333 -11.965  1.00  0.00    -0.359 N 
ATOM     12  C3  MOL A   1       6.355 -16.097 -10.920  1.00  0.00     0.222 C 
ATOM     13  O4  MOL A   1       5.976 -15.951  -9.726  1.00  0.00    -0.275 OA
ENDBRANCH   9  12
ENDBRANCH   8   9
BRANCH   8  14
ATOM     14  N7  MOL A   1       9.288 -18.178 -10.001  1.00  0.00    -0.346 N 
ATOM     15  C8  MOL A   1      10.175 -17.713  -8.982  1.00  0.00     0.258 C 
ATOM     16  O9  MOL A   1       9.737 -17.019  -8.026  1.00  0.00    -0.271 OA
BRANCH  15  17
ATOM     17 C10  MOL A   1      11.633 -18.059  -9.030  1.00  0.00     0.167 C 
BRANCH  17  18
ATOM     18 O11  MOL A   1      12.031 -18.713  -7.828  1.00  0.00    -0.480 OA
BRANCH  18  19
ATOM     19 C12  MOL A   1      12.677 -19.952  -7.837  1.00  0.00     0.166 A 
ATOM     20 C13  MOL A   1      14.084 -20.045  -7.737  1.00  0.00     0.012 A 
ATOM     21 C21  MOL A   1      14.685 -21.313  -7.670  1.00  0.00    -0.054 A 
ATOM     22 C22  MOL A   1      13.909 -22.469  -7.751  1.00  0.00    -0.058 A 
ATOM     23 C23  MOL A   1      12.525 -22.376  -7.900  1.00  0.00    -0.016 A 
ATOM     24 C24  MOL A   1      11.898 -21.116  -7.949  1.00  0.00     0.161 A 
BRANCH  20  25
ATOM     25 C14  MOL A   1      14.962 -18.814  -7.701  1.00  0.00     0.028 C 
BRANCH  25  26
ATOM     26 N15  MOL A   1      16.341 -19.175  -7.313  1.00  0.00    -0.287 NA
ATOM     27 C16  MOL A   1      16.688 -18.639  -5.986  1.00  0.00     0.064 C 
ATOM     28 C17  MOL A   1      17.735 -17.703  -6.557  1.00  0.00     0.272 C 
ATOM     29 F18  MOL A   1      19.029 -18.021  -6.182  1.00  0.00    -0.204 F 
ATOM     30 F19  MOL A   1      17.423 -16.361  -6.411  1.00  0.00    -0.204 F 
ATOM     31 C20  MOL A   1      17.341 -18.270  -7.906  1.00  0.00     0.064 C 
ENDBRANCH  25  26
ENDBRANCH  20  25
BRANCH  24  32
ATOM     32 O25  MOL A   1      10.511 -20.979  -8.099  1.00  0.00    -0.493 OA
ATOM     33 C26  MOL A   1       9.742 -21.629  -9.106  1.00  0.00     0.078 C 
ENDBRANCH  24  32
ENDBRANCH  18  19
ENDBRANCH  17  18
ENDBRANCH  15  17
ENDBRANCH   8  14
ENDBRANCH   1   8
TORSDOF 10
ENDMDL
MODEL 90
REMARK VINA RESULT:    -7.732      5.862     10.507
REMARK INTER + INTRA:         -13.300
REMARK INTER:                 -11.750
REMARK INTRA:                  -1.550
REMARK UNBOUND:                -1.048
REMARK  10 active torsions:
REMARK  status: ('A' for Active; 'I' for Inactive)
REMARK   1   A    between atoms:  C27_1   and   C6_8  
REMARK   2   A    between atoms:  C6_8    and   C5_9  
REMARK   3   A    between atoms:  C5_9    and   C3_12 
REMARK   4   A    between atoms:  C6_8    and   N7_14 
REMARK   5   A    between atoms:  C8_15   and  C10_17 
REMARK   6   A    between atoms: C10_17   and  O11_18 
REMARK   7   A    between atoms: O11_18   and  C12_19 
REMARK   8   A    between atoms: C13_20   and  C14_25 
REMARK   9   A    between atoms: C14_25   and  N15_26 
REMARK   10  A    between atoms: C24_24   and  O25_32 
ROOT
ATOM      1 C27  MOL A   1       7.660 -17.977  -9.352  1.00  0.00    -0.024 A 
ATOM      2 C28  MOL A   1       7.627 -17.169 -10.503  1.00  0.00    -0.057 A 
ATOM      3 C29  MOL A   1       6.709 -16.119 -10.606  1.00  0.00    -0.061 A 
ATOM      4 C30  MOL A   1       5.815 -15.865  -9.562  1.00  0.00    -0.048 A 
ATOM      5 C31  MOL A   1       5.839 -16.658  -8.409  1.00  0.00     0.018 A 
ATOM      6 Br32 MOL A   1       4.630 -16.295  -6.971  1.00  0.00    -0.051 Br
ATOM      7 C33  MOL A   1       6.752 -17.712  -8.306  1.00  0.00    -0.043 A 
ENDROOT
BRANCH   1   8
ATOM      8  C6  MOL A   1       8.607 -19.155  -9.279  1.00  0.00     0.063 C 
BRANCH   8   9
ATOM      9  C5  MOL A   1       7.906 -20.354  -8.614  1.00  0.00     0.051 C 
BRANCH   9  12
ATOM     10  C1  MOL A   1       9.448 -22.931 -11.095  1.00  0.00     0.006 C 
ATOM     11  N2  MOL A   1       9.198 -21.713 -10.338  1.00  0.00    -0.359 N 
ATOM     12  C3  MOL A   1       8.132 -21.621  -9.387  1.00  0.00     0.222 C 
ATOM     13  O4  MOL A   1       7.374 -22.610  -9.189  1.00  0.00    -0.275 OA
ENDBRANCH   9  12
ENDBRANCH   8   9
BRANCH   8  14
ATOM     14  N7  MOL A   1       9.818 -18.789  -8.538  1.00  0.00    -0.346 N 
ATOM     15  C8  MOL A   1      11.071 -18.547  -9.184  1.00  0.00     0.258 C 
ATOM     16  O9  MOL A   1      11.172 -18.655 -10.434  1.00  0.00    -0.271 OA
BRANCH  15  17
ATOM     17 C10  MOL A   1      12.273 -18.150  -8.381  1.00  0.00     0.167 C 
BRANCH  17  18
ATOM     18 O11  MOL A   1      13.186 -19.239  -8.276  1.00  0.00    -0.480 OA
BRANCH  18  19
ATOM     19 C12  MOL A   1      13.668 -19.688  -7.044  1.00  0.00     0.166 A 
ATOM     20 C13  MOL A   1      14.828 -19.126  -6.464  1.00  0.00     0.012 A 
ATOM     21 C21  MOL A   1      15.232 -19.552  -5.187  1.00  0.00    -0.054 A 
ATOM     22 C22  MOL A   1      14.525 -20.551  -4.518  1.00  0.00    -0.058 A 
ATOM     23 C23  MOL A   1      13.409 -21.139  -5.113  1.00  0.00    -0.016 A 
ATOM     24 C24  MOL A   1      12.974 -20.715  -6.383  1.00  0.00     0.161 A 
BRANCH  20  25
ATOM     25 C14  MOL A   1      15.651 -18.079  -7.183  1.00  0.00     0.028 C 
BRANCH  25  26
ATOM     26 N15  MOL A   1      16.637 -18.722  -8.075  1.00  0.00    -0.287 NA
ATOM     27 C16  MOL A   1      17.923 -18.004  -8.067  1.00  0.00     0.064 C 
ATOM     28 C17  MOL A   1      17.781 -17.583  -9.517  1.00  0.00     0.272 C 
ATOM     29 F18  MOL A   1      18.714 -18.164 -10.358  1.00  0.00    -0.204 F 
ATOM     30 F19  MOL A   1      17.643 -16.216  -9.690  1.00  0.00    -0.204 F 
ATOM     31 C20  MOL A   1      16.457 -18.322  -9.482  1.00  0.00     0.064 C 
ENDBRANCH  25  26
ENDBRANCH  20  25
BRANCH  24  32
ATOM     32 O25  MOL A   1      11.858 -21.281  -7.016  1.00  0.00    -0.493 OA
ATOM     33 C26  MOL A   1      11.925 -22.310  -7.998  1.00  0.00     0.078 C 
ENDBRANCH  24  32
ENDBRANCH  18  19
ENDBRANCH  17  18
ENDBRANCH  15  17
ENDBRANCH   8  14
ENDBRANCH   1   8
TORSDOF 10
ENDMDL
MODEL 91
REMARK VINA RESULT:    -7.727      5.166      7.757
REMARK INTER + INTRA:         -13.292
REMARK INTER:                 -14.164
REMARK INTRA:                   0.871
REMARK UNBOUND:                -1.048
REMARK  10 active torsions:
REMARK  status: ('A' for Active; 'I' for Inactive)
REMARK   1   A    between atoms:  C27_1   and   C6_8  
REMARK   2   A    between atoms:  C6_8    and   C5_9  
REMARK   3   A    between atoms:  C5_9    and   C3_12 
REMARK   4   A    between atoms:  C6_8    and   N7_14 
REMARK   5   A    between atoms:  C8_15   and  C10_17 
REMARK   6   A    between atoms: C10_17   and  O11_18 
REMARK   7   A    between atoms: O11_18   and  C12_19 
REMARK   8   A    between atoms: C13_20   and  C14_25 
REMARK   9   A    between atoms: C14_25   and  N15_26 
REMARK   10  A    between atoms: C24_24   and  O25_32 
ROOT
ATOM      1 C27  MOL A   1       7.227 -16.613 -10.243  1.00  0.00    -0.024 A 
ATOM      2 C28  MOL A   1       7.608 -17.431 -11.322  1.00  0.00    -0.057 A 
ATOM      3 C29  MOL A   1       7.088 -17.204 -12.600  1.00  0.00    -0.061 A 
ATOM      4 C30  MOL A   1       6.183 -16.161 -12.814  1.00  0.00    -0.048 A 
ATOM      5 C31  MOL A   1       5.798 -15.338 -11.750  1.00  0.00     0.018 A 
ATOM      6 Br32 MOL A   1       4.576 -13.896 -12.048  1.00  0.00    -0.051 Br
ATOM      7 C33  MOL A   1       6.312 -15.565 -10.469  1.00  0.00    -0.043 A 
ENDROOT
BRANCH   1   8
ATOM      8  C6  MOL A   1       7.738 -16.910  -8.850  1.00  0.00     0.063 C 
BRANCH   8   9
ATOM      9  C5  MOL A   1       8.850 -17.973  -8.911  1.00  0.00     0.051 C 
BRANCH   9  12
ATOM     10  C1  MOL A   1      11.437 -16.066  -6.711  1.00  0.00     0.006 C 
ATOM     11  N2  MOL A   1      10.188 -16.593  -7.240  1.00  0.00    -0.359 N 
ATOM     12  C3  MOL A   1      10.154 -17.436  -8.397  1.00  0.00     0.222 C 
ATOM     13  O4  MOL A   1      11.225 -17.737  -8.991  1.00  0.00    -0.275 OA
ENDBRANCH   9  12
ENDBRANCH   8   9
BRANCH   8  14
ATOM     14  N7  MOL A   1       6.639 -17.362  -7.990  1.00  0.00    -0.346 N 
ATOM     15  C8  MOL A   1       5.885 -18.545  -8.264  1.00  0.00     0.258 C 
ATOM     16  O9  MOL A   1       6.145 -19.242  -9.281  1.00  0.00    -0.271 OA
BRANCH  15  17
ATOM     17 C10  MOL A   1       4.788 -18.977  -7.338  1.00  0.00     0.167 C 
BRANCH  17  18
ATOM     18 O11  MOL A   1       4.699 -20.399  -7.299  1.00  0.00    -0.480 OA
BRANCH  18  19
ATOM     19 C12  MOL A   1       4.136 -21.136  -8.345  1.00  0.00     0.166 A 
ATOM     20 C13  MOL A   1       4.947 -21.867  -9.243  1.00  0.00     0.012 A 
ATOM     21 C21  MOL A   1       4.336 -22.657 -10.231  1.00  0.00    -0.054 A 
ATOM     22 C22  MOL A   1       2.947 -22.683 -10.357  1.00  0.00    -0.058 A 
ATOM     23 C23  MOL A   1       2.151 -21.921  -9.502  1.00  0.00    -0.016 A 
ATOM     24 C24  MOL A   1       2.740 -21.138  -8.492  1.00  0.00     0.161 A 
BRANCH  20  25
ATOM     25 C14  MOL A   1       6.458 -21.821  -9.171  1.00  0.00     0.028 C 
BRANCH  25  26
ATOM     26 N15  MOL A   1       7.051 -22.634 -10.252  1.00  0.00    -0.287 NA
ATOM     27 C16  MOL A   1       8.288 -23.301  -9.811  1.00  0.00     0.064 C 
ATOM     28 C17  MOL A   1       9.149 -22.495 -10.763  1.00  0.00     0.272 C 
ATOM     29 F18  MOL A   1       9.726 -23.252 -11.768  1.00  0.00    -0.204 F 
ATOM     30 F19  MOL A   1      10.033 -21.639 -10.127  1.00  0.00    -0.204 F 
ATOM     31 C20  MOL A   1       7.855 -21.822 -11.181  1.00  0.00     0.064 C 
ENDBRANCH  25  26
ENDBRANCH  20  25
BRANCH  24  32
ATOM     32 O25  MOL A   1       1.975 -20.358  -7.613  1.00  0.00    -0.493 OA
ATOM     33 C26  MOL A   1       0.594 -20.060  -7.793  1.00  0.00     0.078 C 
ENDBRANCH  24  32
ENDBRANCH  18  19
ENDBRANCH  17  18
ENDBRANCH  15  17
ENDBRANCH   8  14
ENDBRANCH   1   8
TORSDOF 10
ENDMDL
MODEL 92
REMARK VINA RESULT:    -7.726      4.838     10.153
REMARK INTER + INTRA:         -13.291
REMARK INTER:                 -12.655
REMARK INTRA:                  -0.636
REMARK UNBOUND:                -1.048
REMARK  10 active torsions:
REMARK  status: ('A' for Active; 'I' for Inactive)
REMARK   1   A    between atoms:  C27_1   and   C6_8  
REMARK   2   A    between atoms:  C6_8    and   C5_9  
REMARK   3   A    between atoms:  C5_9    and   C3_12 
REMARK   4   A    between atoms:  C6_8    and   N7_14 
REMARK   5   A    between atoms:  C8_15   and  C10_17 
REMARK   6   A    between atoms: C10_17   and  O11_18 
REMARK   7   A    between atoms: O11_18   and  C12_19 
REMARK   8   A    between atoms: C13_20   and  C14_25 
REMARK   9   A    between atoms: C14_25   and  N15_26 
REMARK   10  A    between atoms: C24_24   and  O25_32 
ROOT
ATOM      1 C27  MOL A   1       6.984 -18.172  -8.493  1.00  0.00    -0.024 A 
ATOM      2 C28  MOL A   1       6.375 -19.440  -8.512  1.00  0.00    -0.057 A 
ATOM      3 C29  MOL A   1       5.129 -19.636  -7.906  1.00  0.00    -0.061 A 
ATOM      4 C30  MOL A   1       4.481 -18.570  -7.276  1.00  0.00    -0.048 A 
ATOM      5 C31  MOL A   1       5.074 -17.303  -7.253  1.00  0.00     0.018 A 
ATOM      6 Br32 MOL A   1       4.175 -15.839  -6.410  1.00  0.00    -0.051 Br
ATOM      7 C33  MOL A   1       6.322 -17.105  -7.854  1.00  0.00    -0.043 A 
ENDROOT
BRANCH   1   8
ATOM      8  C6  MOL A   1       8.363 -17.986  -9.087  1.00  0.00     0.063 C 
BRANCH   8   9
ATOM      9  C5  MOL A   1       8.321 -18.232 -10.607  1.00  0.00     0.051 C 
BRANCH   9  12
ATOM     10  C1  MOL A   1       6.125 -15.110 -11.386  1.00  0.00     0.006 C 
ATOM     11  N2  MOL A   1       7.062 -16.022 -10.746  1.00  0.00    -0.359 N 
ATOM     12  C3  MOL A   1       7.341 -17.318 -11.285  1.00  0.00     0.222 C 
ATOM     13  O4  MOL A   1       6.764 -17.702 -12.339  1.00  0.00    -0.275 OA
ENDBRANCH   9  12
ENDBRANCH   8   9
BRANCH   8  14
ATOM     14  N7  MOL A   1       9.320 -18.893  -8.444  1.00  0.00    -0.346 N 
ATOM     15  C8  MOL A   1      10.472 -18.423  -7.740  1.00  0.00     0.258 C 
ATOM     16  O9  MOL A   1      10.707 -17.188  -7.660  1.00  0.00    -0.271 OA
BRANCH  15  17
ATOM     17 C10  MOL A   1      11.404 -19.393  -7.078  1.00  0.00     0.167 C 
BRANCH  17  18
ATOM     18 O11  MOL A   1      12.403 -19.830  -7.997  1.00  0.00    -0.480 OA
BRANCH  18  19
ATOM     19 C12  MOL A   1      13.638 -20.324  -7.569  1.00  0.00     0.166 A 
ATOM     20 C13  MOL A   1      14.775 -19.486  -7.496  1.00  0.00     0.012 A 
ATOM     21 C21  MOL A   1      15.976 -20.005  -6.985  1.00  0.00    -0.054 A 
ATOM     22 C22  MOL A   1      16.063 -21.342  -6.599  1.00  0.00    -0.058 A 
ATOM     23 C23  MOL A   1      14.954 -22.180  -6.719  1.00  0.00    -0.016 A 
ATOM     24 C24  MOL A   1      13.734 -21.678  -7.209  1.00  0.00     0.161 A 
BRANCH  20  25
ATOM     25 C14  MOL A   1      14.733 -18.046  -7.955  1.00  0.00     0.028 C 
BRANCH  25  26
ATOM     26 N15  MOL A   1      15.900 -17.304  -7.433  1.00  0.00    -0.287 NA
ATOM     27 C16  MOL A   1      15.488 -16.127  -6.651  1.00  0.00     0.064 C 
ATOM     28 C17  MOL A   1      16.080 -15.160  -7.656  1.00  0.00     0.272 C 
ATOM     29 F18  MOL A   1      17.161 -14.445  -7.170  1.00  0.00    -0.204 F 
ATOM     30 F19  MOL A   1      15.136 -14.378  -8.302  1.00  0.00    -0.204 F 
ATOM     31 C20  MOL A   1      16.476 -16.396  -8.440  1.00  0.00     0.064 C 
ENDBRANCH  25  26
ENDBRANCH  20  25
BRANCH  24  32
ATOM     32 O25  MOL A   1      12.597 -22.487  -7.346  1.00  0.00    -0.493 OA
ATOM     33 C26  MOL A   1      12.470 -23.545  -8.290  1.00  0.00     0.078 C 
ENDBRANCH  24  32
ENDBRANCH  18  19
ENDBRANCH  17  18
ENDBRANCH  15  17
ENDBRANCH   8  14
ENDBRANCH   1   8
TORSDOF 10
ENDMDL
MODEL 93
REMARK VINA RESULT:    -7.726      6.216      9.420
REMARK INTER + INTRA:         -13.290
REMARK INTER:                 -13.050
REMARK INTRA:                  -0.240
REMARK UNBOUND:                -1.048
REMARK  10 active torsions:
REMARK  status: ('A' for Active; 'I' for Inactive)
REMARK   1   A    between atoms:  C27_1   and   C6_8  
REMARK   2   A    between atoms:  C6_8    and   C5_9  
REMARK   3   A    between atoms:  C5_9    and   C3_12 
REMARK   4   A    between atoms:  C6_8    and   N7_14 
REMARK   5   A    between atoms:  C8_15   and  C10_17 
REMARK   6   A    between atoms: C10_17   and  O11_18 
REMARK   7   A    between atoms: O11_18   and  C12_19 
REMARK   8   A    between atoms: C13_20   and  C14_25 
REMARK   9   A    between atoms: C14_25   and  N15_26 
REMARK   10  A    between atoms: C24_24   and  O25_32 
ROOT
ATOM      1 C27  MOL A   1       1.097 -22.001  -9.143  1.00  0.00    -0.024 A 
ATOM      2 C28  MOL A   1       2.048 -22.949  -9.561  1.00  0.00    -0.057 A 
ATOM      3 C29  MOL A   1       1.801 -23.754 -10.679  1.00  0.00    -0.061 A 
ATOM      4 C30  MOL A   1       0.605 -23.620 -11.389  1.00  0.00    -0.048 A 
ATOM      5 C31  MOL A   1      -0.349 -22.679 -10.985  1.00  0.00     0.018 A 
ATOM      6 Br32 MOL A   1      -1.977 -22.481 -11.970  1.00  0.00    -0.051 Br
ATOM      7 C33  MOL A   1      -0.108 -21.877  -9.865  1.00  0.00    -0.043 A 
ENDROOT
BRANCH   1   8
ATOM      8  C6  MOL A   1       1.339 -21.186  -7.891  1.00  0.00     0.063 C 
BRANCH   8   9
ATOM      9  C5  MOL A   1       0.264 -20.093  -7.757  1.00  0.00     0.051 C 
BRANCH   9  12
ATOM     10  C1  MOL A   1      -3.571 -20.472  -7.193  1.00  0.00     0.006 C 
ATOM     11  N2  MOL A   1      -2.271 -19.935  -7.567  1.00  0.00    -0.359 N 
ATOM     12  C3  MOL A   1      -1.061 -20.670  -7.350  1.00  0.00     0.222 C 
ATOM     13  O4  MOL A   1      -1.101 -21.812  -6.817  1.00  0.00    -0.275 OA
ENDBRANCH   9  12
ENDBRANCH   8   9
BRANCH   8  14
ATOM     14  N7  MOL A   1       2.680 -20.592  -7.923  1.00  0.00    -0.346 N 
ATOM     15  C8  MOL A   1       3.801 -21.186  -7.265  1.00  0.00     0.258 C 
ATOM     16  O9  MOL A   1       3.662 -22.257  -6.616  1.00  0.00    -0.271 OA
BRANCH  15  17
ATOM     17 C10  MOL A   1       5.156 -20.550  -7.352  1.00  0.00     0.167 C 
BRANCH  17  18
ATOM     18 O11  MOL A   1       5.192 -19.597  -8.412  1.00  0.00    -0.480 OA
BRANCH  18  19
ATOM     19 C12  MOL A   1       6.256 -18.705  -8.570  1.00  0.00     0.166 A 
ATOM     20 C13  MOL A   1       7.371 -19.032  -9.376  1.00  0.00     0.012 A 
ATOM     21 C21  MOL A   1       8.380 -18.074  -9.571  1.00  0.00    -0.054 A 
ATOM     22 C22  MOL A   1       8.310 -16.833  -8.939  1.00  0.00    -0.058 A 
ATOM     23 C23  MOL A   1       7.234 -16.531  -8.103  1.00  0.00    -0.016 A 
ATOM     24 C24  MOL A   1       6.201 -17.467  -7.909  1.00  0.00     0.161 A 
BRANCH  20  25
ATOM     25 C14  MOL A   1       7.507 -20.386 -10.035  1.00  0.00     0.028 C 
BRANCH  25  26
ATOM     26 N15  MOL A   1       8.189 -21.334  -9.130  1.00  0.00    -0.287 NA
ATOM     27 C16  MOL A   1       9.615 -21.479  -9.471  1.00  0.00     0.064 C 
ATOM     28 C17  MOL A   1       9.444 -22.928  -9.882  1.00  0.00     0.272 C 
ATOM     29 F18  MOL A   1      10.097 -23.822  -9.052  1.00  0.00    -0.204 F 
ATOM     30 F19  MOL A   1       9.662 -23.153 -11.232  1.00  0.00    -0.204 F 
ATOM     31 C20  MOL A   1       7.982 -22.735  -9.533  1.00  0.00     0.064 C 
ENDBRANCH  25  26
ENDBRANCH  20  25
BRANCH  24  32
ATOM     32 O25  MOL A   1       5.103 -17.203  -7.077  1.00  0.00    -0.493 OA
ATOM     33 C26  MOL A   1       4.794 -15.925  -6.532  1.00  0.00     0.078 C 
ENDBRANCH  24  32
ENDBRANCH  18  19
ENDBRANCH  17  18
ENDBRANCH  15  17
ENDBRANCH   8  14
ENDBRANCH   1   8
TORSDOF 10
ENDMDL
MODEL 94
REMARK VINA RESULT:    -7.718      5.466      9.568
REMARK INTER + INTRA:         -13.278
REMARK INTER:                 -12.117
REMARK INTRA:                  -1.161
REMARK UNBOUND:                -1.048
REMARK  10 active torsions:
REMARK  status: ('A' for Active; 'I' for Inactive)
REMARK   1   A    between atoms:  C27_1   and   C6_8  
REMARK   2   A    between atoms:  C6_8    and   C5_9  
REMARK   3   A    between atoms:  C5_9    and   C3_12 
REMARK   4   A    between atoms:  C6_8    and   N7_14 
REMARK   5   A    between atoms:  C8_15   and  C10_17 
REMARK   6   A    between atoms: C10_17   and  O11_18 
REMARK   7   A    between atoms: O11_18   and  C12_19 
REMARK   8   A    between atoms: C13_20   and  C14_25 
REMARK   9   A    between atoms: C14_25   and  N15_26 
REMARK   10  A    between atoms: C24_24   and  O25_32 
ROOT
ATOM      1 C27  MOL A   1       6.815 -18.013  -8.414  1.00  0.00    -0.024 A 
ATOM      2 C28  MOL A   1       6.201 -19.278  -8.371  1.00  0.00    -0.057 A 
ATOM      3 C29  MOL A   1       4.975 -19.447  -7.720  1.00  0.00    -0.061 A 
ATOM      4 C30  MOL A   1       4.350 -18.358  -7.107  1.00  0.00    -0.048 A 
ATOM      5 C31  MOL A   1       4.948 -17.093  -7.145  1.00  0.00     0.018 A 
ATOM      6 Br32 MOL A   1       4.081 -15.598  -6.325  1.00  0.00    -0.051 Br
ATOM      7 C33  MOL A   1       6.177 -16.921  -7.791  1.00  0.00    -0.043 A 
ENDROOT
BRANCH   1   8
ATOM      8  C6  MOL A   1       8.176 -17.853  -9.057  1.00  0.00     0.063 C 
BRANCH   8   9
ATOM      9  C5  MOL A   1       8.104 -18.236 -10.546  1.00  0.00     0.051 C 
BRANCH   9  12
ATOM     10  C1  MOL A   1       9.290 -21.928 -10.921  1.00  0.00     0.006 C 
ATOM     11  N2  MOL A   1       8.481 -20.754 -10.627  1.00  0.00    -0.359 N 
ATOM     12  C3  MOL A   1       8.967 -19.427 -10.850  1.00  0.00     0.222 C 
ATOM     13  O4  MOL A   1      10.129 -19.248 -11.309  1.00  0.00    -0.275 OA
ENDBRANCH   9  12
ENDBRANCH   8   9
BRANCH   8  14
ATOM     14  N7  MOL A   1       9.168 -18.677  -8.358  1.00  0.00    -0.346 N 
ATOM     15  C8  MOL A   1      10.452 -18.179  -7.978  1.00  0.00     0.258 C 
ATOM     16  O9  MOL A   1      10.778 -16.992  -8.248  1.00  0.00    -0.271 OA
BRANCH  15  17
ATOM     17 C10  MOL A   1      11.419 -19.057  -7.242  1.00  0.00     0.167 C 
BRANCH  17  18
ATOM     18 O11  MOL A   1      12.463 -19.488  -8.112  1.00  0.00    -0.480 OA
BRANCH  18  19
ATOM     19 C12  MOL A   1      13.769 -19.690  -7.659  1.00  0.00     0.166 A 
ATOM     20 C13  MOL A   1      14.705 -18.631  -7.628  1.00  0.00     0.012 A 
ATOM     21 C21  MOL A   1      15.982 -18.860  -7.091  1.00  0.00    -0.054 A 
ATOM     22 C22  MOL A   1      16.343 -20.129  -6.638  1.00  0.00    -0.058 A 
ATOM     23 C23  MOL A   1      15.435 -21.185  -6.716  1.00  0.00    -0.016 A 
ATOM     24 C24  MOL A   1      14.143 -20.975  -7.231  1.00  0.00     0.161 A 
BRANCH  20  25
ATOM     25 C14  MOL A   1      14.368 -17.255  -8.159  1.00  0.00     0.028 C 
BRANCH  25  26
ATOM     26 N15  MOL A   1      14.813 -16.213  -7.212  1.00  0.00    -0.287 NA
ATOM     27 C16  MOL A   1      14.073 -16.283  -5.941  1.00  0.00     0.064 C 
ATOM     28 C17  MOL A   1      13.406 -14.942  -6.170  1.00  0.00     0.272 C 
ATOM     29 F18  MOL A   1      13.802 -13.964  -5.274  1.00  0.00    -0.204 F 
ATOM     30 F19  MOL A   1      12.034 -15.023  -6.341  1.00  0.00    -0.204 F 
ATOM     31 C20  MOL A   1      14.175 -14.912  -7.476  1.00  0.00     0.064 C 
ENDBRANCH  25  26
ENDBRANCH  20  25
BRANCH  24  32
ATOM     32 O25  MOL A   1      13.201 -22.010  -7.328  1.00  0.00    -0.493 OA
ATOM     33 C26  MOL A   1      13.125 -23.116  -6.434  1.00  0.00     0.078 C 
ENDBRANCH  24  32
ENDBRANCH  18  19
ENDBRANCH  17  18
ENDBRANCH  15  17
ENDBRANCH   8  14
ENDBRANCH   1   8
TORSDOF 10
ENDMDL
MODEL 95
REMARK VINA RESULT:    -7.718      4.427      9.371
REMARK INTER + INTRA:         -13.278
REMARK INTER:                 -12.016
REMARK INTRA:                  -1.262
REMARK UNBOUND:                -1.048
REMARK  10 active torsions:
REMARK  status: ('A' for Active; 'I' for Inactive)
REMARK   1   A    between atoms:  C27_1   and   C6_8  
REMARK   2   A    between atoms:  C6_8    and   C5_9  
REMARK   3   A    between atoms:  C5_9    and   C3_12 
REMARK   4   A    between atoms:  C6_8    and   N7_14 
REMARK   5   A    between atoms:  C8_15   and  C10_17 
REMARK   6   A    between atoms: C10_17   and  O11_18 
REMARK   7   A    between atoms: O11_18   and  C12_19 
REMARK   8   A    between atoms: C13_20   and  C14_25 
REMARK   9   A    between atoms: C14_25   and  N15_26 
REMARK   10  A    between atoms: C24_24   and  O25_32 
ROOT
ATOM      1 C27  MOL A   1       7.071 -19.740  -9.735  1.00  0.00    -0.024 A 
ATOM      2 C28  MOL A   1       7.162 -20.668 -10.789  1.00  0.00    -0.057 A 
ATOM      3 C29  MOL A   1       6.274 -21.746 -10.860  1.00  0.00    -0.061 A 
ATOM      4 C30  MOL A   1       5.289 -21.910  -9.882  1.00  0.00    -0.048 A 
ATOM      5 C31  MOL A   1       5.185 -20.992  -8.831  1.00  0.00     0.018 A 
ATOM      6 Br32 MOL A   1       3.823 -21.204  -7.505  1.00  0.00    -0.051 Br
ATOM      7 C33  MOL A   1       6.075 -19.916  -8.753  1.00  0.00    -0.043 A 
ENDROOT
BRANCH   1   8
ATOM      8  C6  MOL A   1       8.081 -18.618  -9.625  1.00  0.00     0.063 C 
BRANCH   8   9
ATOM      9  C5  MOL A   1       8.423 -18.077 -11.025  1.00  0.00     0.051 C 
BRANCH   9  12
ATOM     10  C1  MOL A   1       5.861 -15.146 -11.161  1.00  0.00     0.006 C 
ATOM     11  N2  MOL A   1       6.881 -16.077 -10.699  1.00  0.00    -0.359 N 
ATOM     12  C3  MOL A   1       7.363 -17.140 -11.528  1.00  0.00     0.222 C 
ATOM     13  O4  MOL A   1       6.901 -17.294 -12.691  1.00  0.00    -0.275 OA
ENDBRANCH   9  12
ENDBRANCH   8   9
BRANCH   8  14
ATOM     14  N7  MOL A   1       9.291 -19.089  -8.944  1.00  0.00    -0.346 N 
ATOM     15  C8  MOL A   1      10.159 -18.211  -8.223  1.00  0.00     0.258 C 
ATOM     16  O9  MOL A   1       9.907 -16.978  -8.161  1.00  0.00    -0.271 OA
BRANCH  15  17
ATOM     17 C10  MOL A   1      11.370 -18.749  -7.522  1.00  0.00     0.167 C 
BRANCH  17  18
ATOM     18 O11  MOL A   1      12.420 -18.992  -8.455  1.00  0.00    -0.480 OA
BRANCH  18  19
ATOM     19 C12  MOL A   1      13.703 -19.367  -8.047  1.00  0.00     0.166 A 
ATOM     20 C13  MOL A   1      14.741 -18.415  -7.932  1.00  0.00     0.012 A 
ATOM     21 C21  MOL A   1      15.993 -18.822  -7.442  1.00  0.00    -0.054 A 
ATOM     22 C22  MOL A   1      16.226 -20.159  -7.119  1.00  0.00    -0.058 A 
ATOM     23 C23  MOL A   1      15.215 -21.106  -7.281  1.00  0.00    -0.016 A 
ATOM     24 C24  MOL A   1      13.947 -20.718  -7.751  1.00  0.00     0.161 A 
BRANCH  20  25
ATOM     25 C14  MOL A   1      14.542 -16.967  -8.323  1.00  0.00     0.028 C 
BRANCH  25  26
ATOM     26 N15  MOL A   1      14.868 -16.077  -7.190  1.00  0.00    -0.287 NA
ATOM     27 C16  MOL A   1      14.022 -16.360  -6.018  1.00  0.00     0.064 C 
ATOM     28 C17  MOL A   1      13.333 -15.012  -6.099  1.00  0.00     0.272 C 
ATOM     29 F18  MOL A   1      13.616 -14.179  -5.031  1.00  0.00    -0.204 F 
ATOM     30 F19  MOL A   1      11.984 -15.093  -6.405  1.00  0.00    -0.204 F 
ATOM     31 C20  MOL A   1      14.212 -14.764  -7.309  1.00  0.00     0.064 C 
ENDBRANCH  25  26
ENDBRANCH  20  25
BRANCH  24  32
ATOM     32 O25  MOL A   1      12.904 -21.639  -7.929  1.00  0.00    -0.493 OA
ATOM     33 C26  MOL A   1      12.660 -22.754  -7.078  1.00  0.00     0.078 C 
ENDBRANCH  24  32
ENDBRANCH  18  19
ENDBRANCH  17  18
ENDBRANCH  15  17
ENDBRANCH   8  14
ENDBRANCH   1   8
TORSDOF 10
ENDMDL
MODEL 96
REMARK VINA RESULT:    -7.711      6.069      7.939
REMARK INTER + INTRA:         -13.267
REMARK INTER:                 -12.927
REMARK INTRA:                  -0.340
REMARK UNBOUND:                -1.048
REMARK  10 active torsions:
REMARK  status: ('A' for Active; 'I' for Inactive)
REMARK   1   A    between atoms:  C27_1   and   C6_8  
REMARK   2   A    between atoms:  C6_8    and   C5_9  
REMARK   3   A    between atoms:  C5_9    and   C3_12 
REMARK   4   A    between atoms:  C6_8    and   N7_14 
REMARK   5   A    between atoms:  C8_15   and  C10_17 
REMARK   6   A    between atoms: C10_17   and  O11_18 
REMARK   7   A    between atoms: O11_18   and  C12_19 
REMARK   8   A    between atoms: C13_20   and  C14_25 
REMARK   9   A    between atoms: C14_25   and  N15_26 
REMARK   10  A    between atoms: C24_24   and  O25_32 
ROOT
ATOM      1 C27  MOL A   1       6.766 -19.263  -8.834  1.00  0.00    -0.024 A 
ATOM      2 C28  MOL A   1       7.905 -18.571  -9.284  1.00  0.00    -0.057 A 
ATOM      3 C29  MOL A   1       8.070 -17.213  -8.990  1.00  0.00    -0.061 A 
ATOM      4 C30  MOL A   1       7.101 -16.534  -8.246  1.00  0.00    -0.048 A 
ATOM      5 C31  MOL A   1       5.965 -17.211  -7.789  1.00  0.00     0.018 A 
ATOM      6 Br32 MOL A   1       4.651 -16.286  -6.752  1.00  0.00    -0.051 Br
ATOM      7 C33  MOL A   1       5.795 -18.568  -8.086  1.00  0.00    -0.043 A 
ENDROOT
BRANCH   1   8
ATOM      8  C6  MOL A   1       6.560 -20.712  -9.218  1.00  0.00     0.063 C 
BRANCH   8   9
ATOM      9  C5  MOL A   1       7.561 -21.114 -10.316  1.00  0.00     0.051 C 
BRANCH   9  12
ATOM     10  C1  MOL A   1       9.640 -24.298  -9.471  1.00  0.00     0.006 C 
ATOM     11  N2  MOL A   1       8.598 -23.416  -9.975  1.00  0.00    -0.359 N 
ATOM     12  C3  MOL A   1       8.646 -21.999  -9.775  1.00  0.00     0.222 C 
ATOM     13  O4  MOL A   1       9.608 -21.483  -9.142  1.00  0.00    -0.275 OA
ENDBRANCH   9  12
ENDBRANCH   8   9
BRANCH   8  14
ATOM     14  N7  MOL A   1       5.182 -20.927  -9.672  1.00  0.00    -0.346 N 
ATOM     15  C8  MOL A   1       4.737 -22.169 -10.221  1.00  0.00     0.258 C 
ATOM     16  O9  MOL A   1       5.539 -23.133 -10.341  1.00  0.00    -0.271 OA
BRANCH  15  17
ATOM     17 C10  MOL A   1       3.310 -22.343 -10.645  1.00  0.00     0.167 C 
BRANCH  17  18
ATOM     18 O11  MOL A   1       2.501 -22.721  -9.534  1.00  0.00    -0.480 OA
BRANCH  18  19
ATOM     19 C12  MOL A   1       1.437 -21.932  -9.089  1.00  0.00     0.166 A 
ATOM     20 C13  MOL A   1       0.158 -22.027  -9.683  1.00  0.00     0.012 A 
ATOM     21 C21  MOL A   1      -0.902 -21.272  -9.152  1.00  0.00    -0.054 A 
ATOM     22 C22  MOL A   1      -0.686 -20.403  -8.083  1.00  0.00    -0.058 A 
ATOM     23 C23  MOL A   1       0.588 -20.273  -7.531  1.00  0.00    -0.016 A 
ATOM     24 C24  MOL A   1       1.661 -21.033  -8.033  1.00  0.00     0.161 A 
BRANCH  20  25
ATOM     25 C14  MOL A   1      -0.102 -22.918 -10.877  1.00  0.00     0.028 C 
BRANCH  25  26
ATOM     26 N15  MOL A   1      -1.501 -22.778 -11.330  1.00  0.00    -0.287 NA
ATOM     27 C16  MOL A   1      -1.889 -23.873 -12.237  1.00  0.00     0.064 C 
ATOM     28 C17  MOL A   1      -2.043 -22.937 -13.419  1.00  0.00     0.272 C 
ATOM     29 F18  MOL A   1      -3.348 -22.816 -13.865  1.00  0.00    -0.204 F 
ATOM     30 F19  MOL A   1      -1.123 -23.160 -14.431  1.00  0.00    -0.204 F 
ATOM     31 C20  MOL A   1      -1.628 -21.840 -12.459  1.00  0.00     0.064 C 
ENDBRANCH  25  26
ENDBRANCH  20  25
BRANCH  24  32
ATOM     32 O25  MOL A   1       2.957 -20.932  -7.507  1.00  0.00    -0.493 OA
ATOM     33 C26  MOL A   1       3.590 -21.938  -6.723  1.00  0.00     0.078 C 
ENDBRANCH  24  32
ENDBRANCH  18  19
ENDBRANCH  17  18
ENDBRANCH  15  17
ENDBRANCH   8  14
ENDBRANCH   1   8
TORSDOF 10
ENDMDL
MODEL 97
REMARK VINA RESULT:    -7.704      5.189      9.785
REMARK INTER + INTRA:         -13.257
REMARK INTER:                 -12.759
REMARK INTRA:                  -0.498
REMARK UNBOUND:                -1.048
REMARK  10 active torsions:
REMARK  status: ('A' for Active; 'I' for Inactive)
REMARK   1   A    between atoms:  C27_1   and   C6_8  
REMARK   2   A    between atoms:  C6_8    and   C5_9  
REMARK   3   A    between atoms:  C5_9    and   C3_12 
REMARK   4   A    between atoms:  C6_8    and   N7_14 
REMARK   5   A    between atoms:  C8_15   and  C10_17 
REMARK   6   A    between atoms: C10_17   and  O11_18 
REMARK   7   A    between atoms: O11_18   and  C12_19 
REMARK   8   A    between atoms: C13_20   and  C14_25 
REMARK   9   A    between atoms: C14_25   and  N15_26 
REMARK   10  A    between atoms: C24_24   and  O25_32 
ROOT
ATOM      1 C27  MOL A   1       6.971 -17.287  -9.954  1.00  0.00    -0.024 A 
ATOM      2 C28  MOL A   1       7.492 -18.156 -10.930  1.00  0.00    -0.057 A 
ATOM      3 C29  MOL A   1       7.332 -17.870 -12.290  1.00  0.00    -0.061 A 
ATOM      4 C30  MOL A   1       6.653 -16.716 -12.689  1.00  0.00    -0.048 A 
ATOM      5 C31  MOL A   1       6.133 -15.841 -11.729  1.00  0.00     0.018 A 
ATOM      6 Br32 MOL A   1       5.222 -14.250 -12.275  1.00  0.00    -0.051 Br
ATOM      7 C33  MOL A   1       6.286 -16.126 -10.368  1.00  0.00    -0.043 A 
ENDROOT
BRANCH   1   8
ATOM      8  C6  MOL A   1       7.085 -17.640  -8.487  1.00  0.00     0.063 C 
BRANCH   8   9
ATOM      9  C5  MOL A   1       6.545 -16.486  -7.623  1.00  0.00     0.051 C 
BRANCH   9  12
ATOM     10  C1  MOL A   1       2.783 -15.679  -7.017  1.00  0.00     0.006 C 
ATOM     11  N2  MOL A   1       4.204 -15.537  -7.301  1.00  0.00    -0.359 N 
ATOM     12  C3  MOL A   1       5.086 -16.664  -7.316  1.00  0.00     0.222 C 
ATOM     13  O4  MOL A   1       4.641 -17.819  -7.073  1.00  0.00    -0.275 OA
ENDBRANCH   9  12
ENDBRANCH   8   9
BRANCH   8  14
ATOM     14  N7  MOL A   1       8.479 -17.935  -8.142  1.00  0.00    -0.346 N 
ATOM     15  C8  MOL A   1       9.445 -16.910  -7.900  1.00  0.00     0.258 C 
ATOM     16  O9  MOL A   1       9.119 -15.697  -7.988  1.00  0.00    -0.271 OA
BRANCH  15  17
ATOM     17 C10  MOL A   1      10.852 -17.267  -7.524  1.00  0.00     0.167 C 
BRANCH  17  18
ATOM     18 O11  MOL A   1      11.483 -17.987  -8.580  1.00  0.00    -0.480 OA
BRANCH  18  19
ATOM     19 C12  MOL A   1      12.382 -19.028  -8.334  1.00  0.00     0.166 A 
ATOM     20 C13  MOL A   1      13.771 -18.784  -8.223  1.00  0.00     0.012 A 
ATOM     21 C21  MOL A   1      14.629 -19.847  -7.896  1.00  0.00    -0.054 A 
ATOM     22 C22  MOL A   1      14.126 -21.138  -7.730  1.00  0.00    -0.058 A 
ATOM     23 C23  MOL A   1      12.763 -21.385  -7.890  1.00  0.00    -0.016 A 
ATOM     24 C24  MOL A   1      11.881 -20.333  -8.197  1.00  0.00     0.161 A 
BRANCH  20  25
ATOM     25 C14  MOL A   1      14.358 -17.409  -8.449  1.00  0.00     0.028 C 
BRANCH  25  26
ATOM     26 N15  MOL A   1      15.507 -17.185  -7.547  1.00  0.00    -0.287 NA
ATOM     27 C16  MOL A   1      15.366 -15.928  -6.792  1.00  0.00     0.064 C 
ATOM     28 C17  MOL A   1      16.555 -15.293  -7.485  1.00  0.00     0.272 C 
ATOM     29 F18  MOL A   1      17.630 -15.060  -6.644  1.00  0.00    -0.204 F 
ATOM     30 F19  MOL A   1      16.223 -14.211  -8.284  1.00  0.00    -0.204 F 
ATOM     31 C20  MOL A   1      16.660 -16.597  -8.252  1.00  0.00     0.064 C 
ENDBRANCH  25  26
ENDBRANCH  20  25
BRANCH  24  32
ATOM     32 O25  MOL A   1      10.504 -20.540  -8.366  1.00  0.00    -0.493 OA
ATOM     33 C26  MOL A   1       9.936 -21.482  -9.270  1.00  0.00     0.078 C 
ENDBRANCH  24  32
ENDBRANCH  18  19
ENDBRANCH  17  18
ENDBRANCH  15  17
ENDBRANCH   8  14
ENDBRANCH   1   8
TORSDOF 10
ENDMDL
MODEL 98
REMARK VINA RESULT:    -7.703      5.919     10.549
REMARK INTER + INTRA:         -13.255
REMARK INTER:                 -11.675
REMARK INTRA:                  -1.580
REMARK UNBOUND:                -1.048
REMARK  10 active torsions:
REMARK  status: ('A' for Active; 'I' for Inactive)
REMARK   1   A    between atoms:  C27_1   and   C6_8  
REMARK   2   A    between atoms:  C6_8    and   C5_9  
REMARK   3   A    between atoms:  C5_9    and   C3_12 
REMARK   4   A    between atoms:  C6_8    and   N7_14 
REMARK   5   A    between atoms:  C8_15   and  C10_17 
REMARK   6   A    between atoms: C10_17   and  O11_18 
REMARK   7   A    between atoms: O11_18   and  C12_19 
REMARK   8   A    between atoms: C13_20   and  C14_25 
REMARK   9   A    between atoms: C14_25   and  N15_26 
REMARK   10  A    between atoms: C24_24   and  O25_32 
ROOT
ATOM      1 C27  MOL A   1       8.078 -17.795  -9.377  1.00  0.00    -0.024 A 
ATOM      2 C28  MOL A   1       7.845 -17.145 -10.602  1.00  0.00    -0.057 A 
ATOM      3 C29  MOL A   1       6.769 -16.261 -10.741  1.00  0.00    -0.061 A 
ATOM      4 C30  MOL A   1       5.917 -16.019  -9.661  1.00  0.00    -0.048 A 
ATOM      5 C31  MOL A   1       6.139 -16.657  -8.435  1.00  0.00     0.018 A 
ATOM      6 Br32 MOL A   1       4.985 -16.308  -6.950  1.00  0.00    -0.051 Br
ATOM      7 C33  MOL A   1       7.211 -17.544  -8.294  1.00  0.00    -0.043 A 
ENDROOT
BRANCH   1   8
ATOM      8  C6  MOL A   1       9.200 -18.803  -9.256  1.00  0.00     0.063 C 
BRANCH   8   9
ATOM      9  C5  MOL A   1       8.737 -20.009  -8.420  1.00  0.00     0.051 C 
BRANCH   9  12
ATOM     10  C1  MOL A   1       9.403 -22.672 -11.184  1.00  0.00     0.006 C 
ATOM     11  N2  MOL A   1       9.499 -21.478 -10.356  1.00  0.00    -0.359 N 
ATOM     12  C3  MOL A   1       8.606 -21.246  -9.262  1.00  0.00     0.222 C 
ATOM     13  O4  MOL A   1       7.701 -22.083  -8.995  1.00  0.00    -0.275 OA
ENDBRANCH   9  12
ENDBRANCH   8   9
BRANCH   8  14
ATOM     14  N7  MOL A   1      10.382 -18.179  -8.652  1.00  0.00    -0.346 N 
ATOM     15  C8  MOL A   1      11.632 -18.074  -9.337  1.00  0.00     0.258 C 
ATOM     16  O9  MOL A   1      11.758 -18.535 -10.502  1.00  0.00    -0.271 OA
BRANCH  15  17
ATOM     17 C10  MOL A   1      12.802 -17.402  -8.682  1.00  0.00     0.167 C 
BRANCH  17  18
ATOM     18 O11  MOL A   1      12.939 -17.843  -7.333  1.00  0.00    -0.480 OA
BRANCH  18  19
ATOM     19 C12  MOL A   1      14.175 -17.864  -6.682  1.00  0.00     0.166 A 
ATOM     20 C13  MOL A   1      15.027 -18.989  -6.767  1.00  0.00     0.012 A 
ATOM     21 C21  MOL A   1      16.294 -18.936  -6.163  1.00  0.00    -0.054 A 
ATOM     22 C22  MOL A   1      16.691 -17.807  -5.447  1.00  0.00    -0.058 A 
ATOM     23 C23  MOL A   1      15.829 -16.717  -5.323  1.00  0.00    -0.016 A 
ATOM     24 C24  MOL A   1      14.562 -16.739  -5.936  1.00  0.00     0.161 A 
BRANCH  20  25
ATOM     25 C14  MOL A   1      14.610 -20.251  -7.489  1.00  0.00     0.028 C 
BRANCH  25  26
ATOM     26 N15  MOL A   1      14.306 -21.324  -6.520  1.00  0.00    -0.287 NA
ATOM     27 C16  MOL A   1      14.074 -22.613  -7.193  1.00  0.00     0.064 C 
ATOM     28 C17  MOL A   1      12.616 -22.649  -6.780  1.00  0.00     0.272 C 
ATOM     29 F18  MOL A   1      12.317 -23.664  -5.887  1.00  0.00    -0.204 F 
ATOM     30 F19  MOL A   1      11.732 -22.558  -7.842  1.00  0.00    -0.204 F 
ATOM     31 C20  MOL A   1      12.891 -21.317  -6.110  1.00  0.00     0.064 C 
ENDBRANCH  25  26
ENDBRANCH  20  25
BRANCH  24  32
ATOM     32 O25  MOL A   1      13.666 -15.665  -5.834  1.00  0.00    -0.493 OA
ATOM     33 C26  MOL A   1      13.458 -14.899  -4.652  1.00  0.00     0.078 C 
ENDBRANCH  24  32
ENDBRANCH  18  19
ENDBRANCH  17  18
ENDBRANCH  15  17
ENDBRANCH   8  14
ENDBRANCH   1   8
TORSDOF 10
ENDMDL
MODEL 99
REMARK VINA RESULT:    -7.702      5.796     10.596
REMARK INTER + INTRA:         -13.254
REMARK INTER:                 -11.621
REMARK INTRA:                  -1.632
REMARK UNBOUND:                -1.048
REMARK  10 active torsions:
REMARK  status: ('A' for Active; 'I' for Inactive)
REMARK   1   A    between atoms:  C27_1   and   C6_8  
REMARK   2   A    between atoms:  C6_8    and   C5_9  
REMARK   3   A    between atoms:  C5_9    and   C3_12 
REMARK   4   A    between atoms:  C6_8    and   N7_14 
REMARK   5   A    between atoms:  C8_15   and  C10_17 
REMARK   6   A    between atoms: C10_17   and  O11_18 
REMARK   7   A    between atoms: O11_18   and  C12_19 
REMARK   8   A    between atoms: C13_20   and  C14_25 
REMARK   9   A    between atoms: C14_25   and  N15_26 
REMARK   10  A    between atoms: C24_24   and  O25_32 
ROOT
ATOM      1 C27  MOL A   1       7.825 -17.981  -9.260  1.00  0.00    -0.024 A 
ATOM      2 C28  MOL A   1       7.793 -17.302 -10.492  1.00  0.00    -0.057 A 
ATOM      3 C29  MOL A   1       6.851 -16.293 -10.720  1.00  0.00    -0.061 A 
ATOM      4 C30  MOL A   1       5.932 -15.954  -9.723  1.00  0.00    -0.048 A 
ATOM      5 C31  MOL A   1       5.955 -16.619  -8.492  1.00  0.00     0.018 A 
ATOM      6 Br32 MOL A   1       4.711 -16.138  -7.121  1.00  0.00    -0.051 Br
ATOM      7 C33  MOL A   1       6.892 -17.631  -8.263  1.00  0.00    -0.043 A 
ENDROOT
BRANCH   1   8
ATOM      8  C6  MOL A   1       8.799 -19.119  -9.048  1.00  0.00     0.063 C 
BRANCH   8   9
ATOM      9  C5  MOL A   1       8.068 -20.335  -8.450  1.00  0.00     0.051 C 
BRANCH   9  12
ATOM     10  C1  MOL A   1       9.515 -22.798 -11.098  1.00  0.00     0.006 C 
ATOM     11  N2  MOL A   1       9.303 -21.620 -10.269  1.00  0.00    -0.359 N 
ATOM     12  C3  MOL A   1       8.254 -21.560  -9.297  1.00  0.00     0.222 C 
ATOM     13  O4  MOL A   1       7.478 -22.543  -9.143  1.00  0.00    -0.275 OA
ENDBRANCH   9  12
ENDBRANCH   8   9
BRANCH   8  14
ATOM     14  N7  MOL A   1       9.895 -18.693  -8.170  1.00  0.00    -0.346 N 
ATOM     15  C8  MOL A   1      11.166 -18.276  -8.674  1.00  0.00     0.258 C 
ATOM     16  O9  MOL A   1      11.387 -18.273  -9.914  1.00  0.00    -0.271 OA
BRANCH  15  17
ATOM     17 C10  MOL A   1      12.243 -17.825  -7.734  1.00  0.00     0.167 C 
BRANCH  17  18
ATOM     18 O11  MOL A   1      13.449 -17.560  -8.447  1.00  0.00    -0.480 OA
BRANCH  18  19
ATOM     19 C12  MOL A   1      14.706 -17.686  -7.850  1.00  0.00     0.166 A 
ATOM     20 C13  MOL A   1      15.397 -18.919  -7.854  1.00  0.00     0.012 A 
ATOM     21 C21  MOL A   1      16.692 -18.981  -7.312  1.00  0.00    -0.054 A 
ATOM     22 C22  MOL A   1      17.272 -17.852  -6.733  1.00  0.00    -0.058 A 
ATOM     23 C23  MOL A   1      16.568 -16.649  -6.686  1.00  0.00    -0.016 A 
ATOM     24 C24  MOL A   1      15.277 -16.558  -7.240  1.00  0.00     0.161 A 
BRANCH  20  25
ATOM     25 C14  MOL A   1      14.780 -20.177  -8.425  1.00  0.00     0.028 C 
BRANCH  25  26
ATOM     26 N15  MOL A   1      14.624 -21.199  -7.370  1.00  0.00    -0.287 NA
ATOM     27 C16  MOL A   1      13.964 -22.412  -7.884  1.00  0.00     0.064 C 
ATOM     28 C17  MOL A   1      12.736 -22.198  -7.021  1.00  0.00     0.272 C 
ATOM     29 F18  MOL A   1      12.570 -23.163  -6.043  1.00  0.00    -0.204 F 
ATOM     30 F19  MOL A   1      11.586 -21.929  -7.746  1.00  0.00    -0.204 F 
ATOM     31 C20  MOL A   1      13.442 -20.951  -6.526  1.00  0.00     0.064 C 
ENDBRANCH  25  26
ENDBRANCH  20  25
BRANCH  24  32
ATOM     32 O25  MOL A   1      14.536 -15.367  -7.211  1.00  0.00    -0.493 OA
ATOM     33 C26  MOL A   1      14.841 -14.210  -7.981  1.00  0.00     0.078 C 
ENDBRANCH  24  32
ENDBRANCH  18  19
ENDBRANCH  17  18
ENDBRANCH  15  17
ENDBRANCH   8  14
ENDBRANCH   1   8
TORSDOF 10
ENDMDL
MODEL 100
REMARK VINA RESULT:    -7.700      6.126      9.579
REMARK INTER + INTRA:         -13.249
REMARK INTER:                 -11.961
REMARK INTRA:                  -1.288
REMARK UNBOUND:                -1.048
REMARK  10 active torsions:
REMARK  status: ('A' for Active; 'I' for Inactive)
REMARK   1   A    between atoms:  C27_1   and   C6_8  
REMARK   2   A    between atoms:  C6_8    and   C5_9  
REMARK   3   A    between atoms:  C5_9    and   C3_12 
REMARK   4   A    between atoms:  C6_8    and   N7_14 
REMARK   5   A    between atoms:  C8_15   and  C10_17 
REMARK   6   A    between atoms: C10_17   and  O11_18 
REMARK   7   A    between atoms: O11_18   and  C12_19 
REMARK   8   A    between atoms: C13_20   and  C14_25 
REMARK   9   A    between atoms: C14_25   and  N15_26 
REMARK   10  A    between atoms: C24_24   and  O25_32 
ROOT
ATOM      1 C27  MOL A   1       6.821 -20.459  -8.850  1.00  0.00    -0.024 A 
ATOM      2 C28  MOL A   1       5.804 -21.344  -8.452  1.00  0.00    -0.057 A 
ATOM      3 C29  MOL A   1       4.689 -20.872  -7.750  1.00  0.00    -0.061 A 
ATOM      4 C30  MOL A   1       4.581 -19.514  -7.439  1.00  0.00    -0.048 A 
ATOM      5 C31  MOL A   1       5.585 -18.622  -7.832  1.00  0.00     0.018 A 
ATOM      6 Br32 MOL A   1       5.425 -16.759  -7.424  1.00  0.00    -0.051 Br
ATOM      7 C33  MOL A   1       6.703 -19.091  -8.529  1.00  0.00    -0.043 A 
ENDROOT
BRANCH   1   8
ATOM      8  C6  MOL A   1       8.057 -20.989  -9.545  1.00  0.00     0.063 C 
BRANCH   8   9
ATOM      9  C5  MOL A   1       8.130 -22.519  -9.397  1.00  0.00     0.051 C 
BRANCH   9  12
ATOM     10  C1  MOL A   1      10.904 -24.846 -10.833  1.00  0.00     0.006 C 
ATOM     11  N2  MOL A   1       9.928 -24.239  -9.939  1.00  0.00    -0.359 N 
ATOM     12  C3  MOL A   1       9.135 -23.116 -10.339  1.00  0.00     0.222 C 
ATOM     13  O4  MOL A   1       9.275 -22.621 -11.490  1.00  0.00    -0.275 OA
ENDBRANCH   9  12
ENDBRANCH   8   9
BRANCH   8  14
ATOM     14  N7  MOL A   1       9.261 -20.359  -8.992  1.00  0.00    -0.346 N 
ATOM     15  C8  MOL A   1      10.132 -19.543  -9.778  1.00  0.00     0.258 C 
ATOM     16  O9  MOL A   1       9.889 -19.346 -10.998  1.00  0.00    -0.271 OA
BRANCH  15  17
ATOM     17 C10  MOL A   1      11.336 -18.901  -9.156  1.00  0.00     0.167 C 
BRANCH  17  18
ATOM     18 O11  MOL A   1      11.797 -19.672  -8.049  1.00  0.00    -0.480 OA
BRANCH  18  19
ATOM     19 C12  MOL A   1      13.126 -20.087  -7.937  1.00  0.00     0.166 A 
ATOM     20 C13  MOL A   1      14.183 -19.149  -7.880  1.00  0.00     0.012 A 
ATOM     21 C21  MOL A   1      15.496 -19.608  -7.687  1.00  0.00    -0.054 A 
ATOM     22 C22  MOL A   1      15.764 -20.974  -7.603  1.00  0.00    -0.058 A 
ATOM     23 C23  MOL A   1      14.727 -21.900  -7.710  1.00  0.00    -0.016 A 
ATOM     24 C24  MOL A   1      13.400 -21.464  -7.883  1.00  0.00     0.161 A 
BRANCH  20  25
ATOM     25 C14  MOL A   1      13.937 -17.663  -8.021  1.00  0.00     0.028 C 
BRANCH  25  26
ATOM     26 N15  MOL A   1      13.774 -17.039  -6.693  1.00  0.00    -0.287 NA
ATOM     27 C16  MOL A   1      12.844 -15.898  -6.741  1.00  0.00     0.064 C 
ATOM     28 C17  MOL A   1      13.936 -14.900  -6.411  1.00  0.00     0.272 C 
ATOM     29 F18  MOL A   1      13.780 -14.294  -5.176  1.00  0.00    -0.204 F 
ATOM     30 F19  MOL A   1      14.211 -14.014  -7.440  1.00  0.00    -0.204 F 
ATOM     31 C20  MOL A   1      14.864 -16.098  -6.383  1.00  0.00     0.064 C 
ENDBRANCH  25  26
ENDBRANCH  20  25
BRANCH  24  32
ATOM     32 O25  MOL A   1      12.329 -22.362  -7.996  1.00  0.00    -0.493 OA
ATOM     33 C26  MOL A   1      12.275 -23.636  -7.363  1.00  0.00     0.078 C 
ENDBRANCH  24  32
ENDBRANCH  18  19
ENDBRANCH  17  18
ENDBRANCH  15  17
ENDBRANCH   8  14
ENDBRANCH   1   8
TORSDOF 10
ENDMDL
MODEL 101
REMARK VINA RESULT:    -7.697      5.800      9.021
REMARK INTER + INTRA:         -13.245
REMARK INTER:                 -12.953
REMARK INTRA:                  -0.292
REMARK UNBOUND:                -1.048
REMARK  10 active torsions:
REMARK  status: ('A' for Active; 'I' for Inactive)
REMARK   1   A    between atoms:  C27_1   and   C6_8  
REMARK   2   A    between atoms:  C6_8    and   C5_9  
REMARK   3   A    between atoms:  C5_9    and   C3_12 
REMARK   4   A    between atoms:  C6_8    and   N7_14 
REMARK   5   A    between atoms:  C8_15   and  C10_17 
REMARK   6   A    between atoms: C10_17   and  O11_18 
REMARK   7   A    between atoms: O11_18   and  C12_19 
REMARK   8   A    between atoms: C13_20   and  C14_25 
REMARK   9   A    between atoms: C14_25   and  N15_26 
REMARK   10  A    between atoms: C24_24   and  O25_32 
ROOT
ATOM      1 C27  MOL A   1       1.228 -21.976  -9.133  1.00  0.00    -0.024 A 
ATOM      2 C28  MOL A   1       2.214 -22.903  -9.518  1.00  0.00    -0.057 A 
ATOM      3 C29  MOL A   1       2.029 -23.703 -10.651  1.00  0.00    -0.061 A 
ATOM      4 C30  MOL A   1       0.861 -23.586 -11.409  1.00  0.00    -0.048 A 
ATOM      5 C31  MOL A   1      -0.126 -22.665 -11.039  1.00  0.00     0.018 A 
ATOM      6 Br32 MOL A   1      -1.716 -22.490 -12.089  1.00  0.00    -0.051 Br
ATOM      7 C33  MOL A   1       0.053 -21.868  -9.904  1.00  0.00    -0.043 A 
ENDROOT
BRANCH   1   8
ATOM      8  C6  MOL A   1       1.404 -21.167  -7.866  1.00  0.00     0.063 C 
BRANCH   8   9
ATOM      9  C5  MOL A   1       0.335 -20.061  -7.794  1.00  0.00     0.051 C 
BRANCH   9  12
ATOM     10  C1  MOL A   1      -3.493 -20.324  -7.126  1.00  0.00     0.006 C 
ATOM     11  N2  MOL A   1      -2.183 -19.815  -7.506  1.00  0.00    -0.359 N 
ATOM     12  C3  MOL A   1      -1.000 -20.611  -7.383  1.00  0.00     0.222 C 
ATOM     13  O4  MOL A   1      -1.072 -21.786  -6.929  1.00  0.00    -0.275 OA
ENDBRANCH   9  12
ENDBRANCH   8   9
BRANCH   8  14
ATOM     14  N7  MOL A   1       2.750 -20.588  -7.815  1.00  0.00    -0.346 N 
ATOM     15  C8  MOL A   1       3.832 -21.217  -7.125  1.00  0.00     0.258 C 
ATOM     16  O9  MOL A   1       3.652 -22.307  -6.520  1.00  0.00    -0.271 OA
BRANCH  15  17
ATOM     17 C10  MOL A   1       5.197 -20.595  -7.127  1.00  0.00     0.167 C 
BRANCH  17  18
ATOM     18 O11  MOL A   1       5.313 -19.650  -8.188  1.00  0.00    -0.480 OA
BRANCH  18  19
ATOM     19 C12  MOL A   1       6.334 -18.696  -8.222  1.00  0.00     0.166 A 
ATOM     20 C13  MOL A   1       7.644 -19.042  -8.625  1.00  0.00     0.012 A 
ATOM     21 C21  MOL A   1       8.619 -18.035  -8.722  1.00  0.00    -0.054 A 
ATOM     22 C22  MOL A   1       8.314 -16.719  -8.378  1.00  0.00    -0.058 A 
ATOM     23 C23  MOL A   1       7.034 -16.389  -7.932  1.00  0.00    -0.016 A 
ATOM     24 C24  MOL A   1       6.035 -17.376  -7.847  1.00  0.00     0.161 A 
BRANCH  20  25
ATOM     25 C14  MOL A   1       8.026 -20.468  -8.955  1.00  0.00     0.028 C 
BRANCH  25  26
ATOM     26 N15  MOL A   1       8.075 -20.664 -10.418  1.00  0.00    -0.287 NA
ATOM     27 C16  MOL A   1       6.733 -20.901 -10.978  1.00  0.00     0.064 C 
ATOM     28 C17  MOL A   1       7.072 -22.322 -11.381  1.00  0.00     0.272 C 
ATOM     29 F18  MOL A   1       7.100 -22.521 -12.750  1.00  0.00    -0.204 F 
ATOM     30 F19  MOL A   1       6.353 -23.284 -10.689  1.00  0.00    -0.204 F 
ATOM     31 C20  MOL A   1       8.437 -22.045 -10.782  1.00  0.00     0.064 C 
ENDBRANCH  25  26
ENDBRANCH  20  25
BRANCH  24  32
ATOM     32 O25  MOL A   1       4.737 -17.086  -7.403  1.00  0.00    -0.493 OA
ATOM     33 C26  MOL A   1       4.395 -15.973  -6.583  1.00  0.00     0.078 C 
ENDBRANCH  24  32
ENDBRANCH  18  19
ENDBRANCH  17  18
ENDBRANCH  15  17
ENDBRANCH   8  14
ENDBRANCH   1   8
TORSDOF 10
ENDMDL
MODEL 102
REMARK VINA RESULT:    -7.696      5.221      9.645
REMARK INTER + INTRA:         -13.243
REMARK INTER:                 -12.441
REMARK INTRA:                  -0.801
REMARK UNBOUND:                -1.048
REMARK  10 active torsions:
REMARK  status: ('A' for Active; 'I' for Inactive)
REMARK   1   A    between atoms:  C27_1   and   C6_8  
REMARK   2   A    between atoms:  C6_8    and   C5_9  
REMARK   3   A    between atoms:  C5_9    and   C3_12 
REMARK   4   A    between atoms:  C6_8    and   N7_14 
REMARK   5   A    between atoms:  C8_15   and  C10_17 
REMARK   6   A    between atoms: C10_17   and  O11_18 
REMARK   7   A    between atoms: O11_18   and  C12_19 
REMARK   8   A    between atoms: C13_20   and  C14_25 
REMARK   9   A    between atoms: C14_25   and  N15_26 
REMARK   10  A    between atoms: C24_24   and  O25_32 
ROOT
ATOM      1 C27  MOL A   1       7.311 -17.380 -10.583  1.00  0.00    -0.024 A 
ATOM      2 C28  MOL A   1       7.556 -17.987 -11.829  1.00  0.00    -0.057 A 
ATOM      3 C29  MOL A   1       7.067 -17.410 -13.006  1.00  0.00    -0.061 A 
ATOM      4 C30  MOL A   1       6.330 -16.224 -12.951  1.00  0.00    -0.048 A 
ATOM      5 C31  MOL A   1       6.081 -15.608 -11.720  1.00  0.00     0.018 A 
ATOM      6 Br32 MOL A   1       5.090 -13.973 -11.649  1.00  0.00    -0.051 Br
ATOM      7 C33  MOL A   1       6.564 -16.185 -10.540  1.00  0.00    -0.043 A 
ENDROOT
BRANCH   1   8
ATOM      8  C6  MOL A   1       7.781 -18.048  -9.309  1.00  0.00     0.063 C 
BRANCH   8   9
ATOM      9  C5  MOL A   1       6.671 -17.991  -8.244  1.00  0.00     0.051 C 
BRANCH   9  12
ATOM     10  C1  MOL A   1       5.548 -21.654  -8.947  1.00  0.00     0.006 C 
ATOM     11  N2  MOL A   1       6.294 -20.404  -8.966  1.00  0.00    -0.359 N 
ATOM     12  C3  MOL A   1       5.873 -19.262  -8.212  1.00  0.00     0.222 C 
ATOM     13  O4  MOL A   1       4.827 -19.319  -7.510  1.00  0.00    -0.275 OA
ENDBRANCH   9  12
ENDBRANCH   8   9
BRANCH   8  14
ATOM     14  N7  MOL A   1       9.003 -17.402  -8.818  1.00  0.00    -0.346 N 
ATOM     15  C8  MOL A   1      10.049 -18.128  -8.169  1.00  0.00     0.258 C 
ATOM     16  O9  MOL A   1       9.943 -19.371  -7.989  1.00  0.00    -0.271 OA
BRANCH  15  17
ATOM     17 C10  MOL A   1      11.289 -17.423  -7.709  1.00  0.00     0.167 C 
BRANCH  17  18
ATOM     18 O11  MOL A   1      12.180 -18.340  -7.079  1.00  0.00    -0.480 OA
BRANCH  18  19
ATOM     19 C12  MOL A   1      13.345 -18.791  -7.706  1.00  0.00     0.166 A 
ATOM     20 C13  MOL A   1      14.279 -17.882  -8.255  1.00  0.00     0.012 A 
ATOM     21 C21  MOL A   1      15.473 -18.375  -8.805  1.00  0.00    -0.054 A 
ATOM     22 C22  MOL A   1      15.717 -19.748  -8.854  1.00  0.00    -0.058 A 
ATOM     23 C23  MOL A   1      14.772 -20.646  -8.357  1.00  0.00    -0.016 A 
ATOM     24 C24  MOL A   1      13.576 -20.174  -7.783  1.00  0.00     0.161 A 
BRANCH  20  25
ATOM     25 C14  MOL A   1      14.025 -16.391  -8.268  1.00  0.00     0.028 C 
BRANCH  25  26
ATOM     26 N15  MOL A   1      14.832 -15.721  -7.227  1.00  0.00    -0.287 NA
ATOM     27 C16  MOL A   1      14.594 -16.308  -5.897  1.00  0.00     0.064 C 
ATOM     28 C17  MOL A   1      13.956 -15.038  -5.370  1.00  0.00     0.272 C 
ATOM     29 F18  MOL A   1      14.694 -14.414  -4.380  1.00  0.00    -0.204 F 
ATOM     30 F19  MOL A   1      12.611 -15.174  -5.066  1.00  0.00    -0.204 F 
ATOM     31 C20  MOL A   1      14.206 -14.474  -6.755  1.00  0.00     0.064 C 
ENDBRANCH  25  26
ENDBRANCH  20  25
BRANCH  24  32
ATOM     32 O25  MOL A   1      12.601 -21.043  -7.273  1.00  0.00    -0.493 OA
ATOM     33 C26  MOL A   1      12.202 -22.260  -7.895  1.00  0.00     0.078 C 
ENDBRANCH  24  32
ENDBRANCH  18  19
ENDBRANCH  17  18
ENDBRANCH  15  17
ENDBRANCH   8  14
ENDBRANCH   1   8
TORSDOF 10
ENDMDL
MODEL 103
REMARK VINA RESULT:    -7.695      4.992      9.454
REMARK INTER + INTRA:         -13.243
REMARK INTER:                 -12.342
REMARK INTRA:                  -0.901
REMARK UNBOUND:                -1.048
REMARK  10 active torsions:
REMARK  status: ('A' for Active; 'I' for Inactive)
REMARK   1   A    between atoms:  C27_1   and   C6_8  
REMARK   2   A    between atoms:  C6_8    and   C5_9  
REMARK   3   A    between atoms:  C5_9    and   C3_12 
REMARK   4   A    between atoms:  C6_8    and   N7_14 
REMARK   5   A    between atoms:  C8_15   and  C10_17 
REMARK   6   A    between atoms: C10_17   and  O11_18 
REMARK   7   A    between atoms: O11_18   and  C12_19 
REMARK   8   A    between atoms: C13_20   and  C14_25 
REMARK   9   A    between atoms: C14_25   and  N15_26 
REMARK   10  A    between atoms: C24_24   and  O25_32 
ROOT
ATOM      1 C27  MOL A   1       7.429 -17.409 -10.712  1.00  0.00    -0.024 A 
ATOM      2 C28  MOL A   1       7.600 -17.890 -12.023  1.00  0.00    -0.057 A 
ATOM      3 C29  MOL A   1       6.997 -17.234 -13.101  1.00  0.00    -0.061 A 
ATOM      4 C30  MOL A   1       6.219 -16.094 -12.883  1.00  0.00    -0.048 A 
ATOM      5 C31  MOL A   1       6.044 -15.603 -11.584  1.00  0.00     0.018 A 
ATOM      6 Br32 MOL A   1       4.997 -14.029 -11.288  1.00  0.00    -0.051 Br
ATOM      7 C33  MOL A   1       6.641 -16.259 -10.503  1.00  0.00    -0.043 A 
ENDROOT
BRANCH   1   8
ATOM      8  C6  MOL A   1       8.024 -18.166  -9.544  1.00  0.00     0.063 C 
BRANCH   8   9
ATOM      9  C5  MOL A   1       7.132 -18.002  -8.300  1.00  0.00     0.051 C 
BRANCH   9  12
ATOM     10  C1  MOL A   1       5.043 -21.194  -9.090  1.00  0.00     0.006 C 
ATOM     11  N2  MOL A   1       6.098 -20.191  -9.094  1.00  0.00    -0.359 N 
ATOM     12  C3  MOL A   1       6.022 -19.013  -8.282  1.00  0.00     0.222 C 
ATOM     13  O4  MOL A   1       5.020 -18.819  -7.542  1.00  0.00    -0.275 OA
ENDBRANCH   9  12
ENDBRANCH   8   9
BRANCH   8  14
ATOM     14  N7  MOL A   1       9.384 -17.689  -9.270  1.00  0.00    -0.346 N 
ATOM     15  C8  MOL A   1      10.548 -18.397  -9.701  1.00  0.00     0.258 C 
ATOM     16  O9  MOL A   1      10.435 -19.480 -10.334  1.00  0.00    -0.271 OA
BRANCH  15  17
ATOM     17 C10  MOL A   1      11.916 -17.852  -9.416  1.00  0.00     0.167 C 
BRANCH  17  18
ATOM     18 O11  MOL A   1      12.246 -18.027  -8.041  1.00  0.00    -0.480 OA
BRANCH  18  19
ATOM     19 C12  MOL A   1      13.379 -18.737  -7.634  1.00  0.00     0.166 A 
ATOM     20 C13  MOL A   1      14.656 -18.132  -7.622  1.00  0.00     0.012 A 
ATOM     21 C21  MOL A   1      15.754 -18.858  -7.131  1.00  0.00    -0.054 A 
ATOM     22 C22  MOL A   1      15.597 -20.178  -6.706  1.00  0.00    -0.058 A 
ATOM     23 C23  MOL A   1      14.345 -20.789  -6.766  1.00  0.00    -0.016 A 
ATOM     24 C24  MOL A   1      13.226 -20.075  -7.235  1.00  0.00     0.161 A 
BRANCH  20  25
ATOM     25 C14  MOL A   1      14.875 -16.722  -8.125  1.00  0.00     0.028 C 
BRANCH  25  26
ATOM     26 N15  MOL A   1      15.099 -15.800  -6.993  1.00  0.00    -0.287 NA
ATOM     27 C16  MOL A   1      14.216 -16.112  -5.856  1.00  0.00     0.064 C 
ATOM     28 C17  MOL A   1      13.460 -14.805  -5.991  1.00  0.00     0.272 C 
ATOM     29 F18  MOL A   1      13.648 -13.942  -4.925  1.00  0.00    -0.204 F 
ATOM     30 F19  MOL A   1      12.134 -14.963  -6.358  1.00  0.00    -0.204 F 
ATOM     31 C20  MOL A   1      14.380 -14.526  -7.163  1.00  0.00     0.064 C 
ENDBRANCH  25  26
ENDBRANCH  20  25
BRANCH  24  32
ATOM     32 O25  MOL A   1      11.951 -20.654  -7.312  1.00  0.00    -0.493 OA
ATOM     33 C26  MOL A   1      10.839 -20.261  -6.516  1.00  0.00     0.078 C 
ENDBRANCH  24  32
ENDBRANCH  18  19
ENDBRANCH  17  18
ENDBRANCH  15  17
ENDBRANCH   8  14
ENDBRANCH   1   8
TORSDOF 10
ENDMDL
MODEL 104
REMARK VINA RESULT:    -7.694      6.976     11.373
REMARK INTER + INTRA:         -13.241
REMARK INTER:                 -11.587
REMARK INTRA:                  -1.654
REMARK UNBOUND:                -1.048
REMARK  10 active torsions:
REMARK  status: ('A' for Active; 'I' for Inactive)
REMARK   1   A    between atoms:  C27_1   and   C6_8  
REMARK   2   A    between atoms:  C6_8    and   C5_9  
REMARK   3   A    between atoms:  C5_9    and   C3_12 
REMARK   4   A    between atoms:  C6_8    and   N7_14 
REMARK   5   A    between atoms:  C8_15   and  C10_17 
REMARK   6   A    between atoms: C10_17   and  O11_18 
REMARK   7   A    between atoms: O11_18   and  C12_19 
REMARK   8   A    between atoms: C13_20   and  C14_25 
REMARK   9   A    between atoms: C14_25   and  N15_26 
REMARK   10  A    between atoms: C24_24   and  O25_32 
ROOT
ATOM      1 C27  MOL A   1      10.289 -17.724  -8.621  1.00  0.00    -0.024 A 
ATOM      2 C28  MOL A   1       9.672 -16.708  -7.868  1.00  0.00    -0.057 A 
ATOM      3 C29  MOL A   1       8.423 -16.205  -8.248  1.00  0.00    -0.061 A 
ATOM      4 C30  MOL A   1       7.779 -16.711  -9.381  1.00  0.00    -0.048 A 
ATOM      5 C31  MOL A   1       8.380 -17.724 -10.136  1.00  0.00     0.018 A 
ATOM      6 Br32 MOL A   1       7.486 -18.431 -11.673  1.00  0.00    -0.051 Br
ATOM      7 C33  MOL A   1       9.631 -18.226  -9.762  1.00  0.00    -0.043 A 
ENDROOT
BRANCH   1   8
ATOM      8  C6  MOL A   1      11.672 -18.211  -8.245  1.00  0.00     0.063 C 
BRANCH   8   9
ATOM      9  C5  MOL A   1      11.621 -19.703  -7.868  1.00  0.00     0.051 C 
BRANCH   9  12
ATOM     10  C1  MOL A   1      14.521 -21.217  -5.753  1.00  0.00     0.006 C 
ATOM     11  N2  MOL A   1      13.221 -20.701  -6.155  1.00  0.00    -0.359 N 
ATOM     12  C3  MOL A   1      12.977 -20.219  -7.481  1.00  0.00     0.222 C 
ATOM     13  O4  MOL A   1      13.903 -20.229  -8.337  1.00  0.00    -0.275 OA
ENDBRANCH   9  12
ENDBRANCH   8   9
BRANCH   8  14
ATOM     14  N7  MOL A   1      12.207 -17.416  -7.135  1.00  0.00    -0.346 N 
ATOM     15  C8  MOL A   1      13.277 -16.484  -7.302  1.00  0.00     0.258 C 
ATOM     16  O9  MOL A   1      13.810 -16.324  -8.433  1.00  0.00    -0.271 OA
BRANCH  15  17
ATOM     17 C10  MOL A   1      13.769 -15.677  -6.138  1.00  0.00     0.167 C 
BRANCH  17  18
ATOM     18 O11  MOL A   1      15.189 -15.752  -6.043  1.00  0.00    -0.480 OA
BRANCH  18  19
ATOM     19 C12  MOL A   1      15.828 -16.672  -5.207  1.00  0.00     0.166 A 
ATOM     20 C13  MOL A   1      16.483 -17.808  -5.735  1.00  0.00     0.012 A 
ATOM     21 C21  MOL A   1      17.179 -18.663  -4.865  1.00  0.00    -0.054 A 
ATOM     22 C22  MOL A   1      17.186 -18.423  -3.491  1.00  0.00    -0.058 A 
ATOM     23 C23  MOL A   1      16.497 -17.329  -2.967  1.00  0.00    -0.016 A 
ATOM     24 C24  MOL A   1      15.809 -16.447  -3.820  1.00  0.00     0.161 A 
BRANCH  20  25
ATOM     25 C14  MOL A   1      16.452 -18.130  -7.212  1.00  0.00     0.028 C 
BRANCH  25  26
ATOM     26 N15  MOL A   1      17.625 -17.543  -7.892  1.00  0.00    -0.287 NA
ATOM     27 C16  MOL A   1      17.222 -16.609  -8.957  1.00  0.00     0.064 C 
ATOM     28 C17  MOL A   1      17.787 -17.496 -10.049  1.00  0.00     0.272 C 
ATOM     29 F18  MOL A   1      18.873 -16.945 -10.707  1.00  0.00    -0.204 F 
ATOM     30 F19  MOL A   1      16.824 -18.018 -10.897  1.00  0.00    -0.204 F 
ATOM     31 C20  MOL A   1      18.174 -18.437  -8.926  1.00  0.00     0.064 C 
ENDBRANCH  25  26
ENDBRANCH  20  25
BRANCH  24  32
ATOM     32 O25  MOL A   1      15.104 -15.337  -3.334  1.00  0.00    -0.493 OA
ATOM     33 C26  MOL A   1      15.333 -14.729  -2.067  1.00  0.00     0.078 C 
ENDBRANCH  24  32
ENDBRANCH  18  19
ENDBRANCH  17  18
ENDBRANCH  15  17
ENDBRANCH   8  14
ENDBRANCH   1   8
TORSDOF 10
ENDMDL
MODEL 105
REMARK VINA RESULT:    -7.693      6.122      9.804
REMARK INTER + INTRA:         -13.238
REMARK INTER:                 -11.703
REMARK INTRA:                  -1.535
REMARK UNBOUND:                -1.048
REMARK  10 active torsions:
REMARK  status: ('A' for Active; 'I' for Inactive)
REMARK   1   A    between atoms:  C27_1   and   C6_8  
REMARK   2   A    between atoms:  C6_8    and   C5_9  
REMARK   3   A    between atoms:  C5_9    and   C3_12 
REMARK   4   A    between atoms:  C6_8    and   N7_14 
REMARK   5   A    between atoms:  C8_15   and  C10_17 
REMARK   6   A    between atoms: C10_17   and  O11_18 
REMARK   7   A    between atoms: O11_18   and  C12_19 
REMARK   8   A    between atoms: C13_20   and  C14_25 
REMARK   9   A    between atoms: C14_25   and  N15_26 
REMARK   10  A    between atoms: C24_24   and  O25_32 
ROOT
ATOM      1 C27  MOL A   1       7.284 -20.310  -8.741  1.00  0.00    -0.024 A 
ATOM      2 C28  MOL A   1       7.056 -18.925  -8.655  1.00  0.00    -0.057 A 
ATOM      3 C29  MOL A   1       5.887 -18.435  -8.063  1.00  0.00    -0.061 A 
ATOM      4 C30  MOL A   1       4.935 -19.321  -7.552  1.00  0.00    -0.048 A 
ATOM      5 C31  MOL A   1       5.151 -20.702  -7.628  1.00  0.00     0.018 A 
ATOM      6 Br32 MOL A   1       3.857 -21.914  -6.909  1.00  0.00    -0.051 Br
ATOM      7 C33  MOL A   1       6.316 -21.195  -8.224  1.00  0.00    -0.043 A 
ENDROOT
BRANCH   1   8
ATOM      8  C6  MOL A   1       8.516 -20.833  -9.447  1.00  0.00     0.063 C 
BRANCH   8   9
ATOM      9  C5  MOL A   1       8.560 -22.369  -9.363  1.00  0.00     0.051 C 
BRANCH   9  12
ATOM     10  C1  MOL A   1      10.901 -24.788 -11.324  1.00  0.00     0.006 C 
ATOM     11  N2  MOL A   1      10.096 -24.188 -10.270  1.00  0.00    -0.359 N 
ATOM     12  C3  MOL A   1       9.390 -22.958 -10.467  1.00  0.00     0.222 C 
ATOM     13  O4  MOL A   1       9.460 -22.359 -11.575  1.00  0.00    -0.275 OA
ENDBRANCH   9  12
ENDBRANCH   8   9
BRANCH   8  14
ATOM     14  N7  MOL A   1       9.726 -20.249  -8.858  1.00  0.00    -0.346 N 
ATOM     15  C8  MOL A   1      10.649 -19.464  -9.616  1.00  0.00     0.258 C 
ATOM     16  O9  MOL A   1      10.448 -19.256 -10.842  1.00  0.00    -0.271 OA
BRANCH  15  17
ATOM     17 C10  MOL A   1      11.857 -18.868  -8.958  1.00  0.00     0.167 C 
BRANCH  17  18
ATOM     18 O11  MOL A   1      11.966 -19.322  -7.611  1.00  0.00    -0.480 OA
BRANCH  18  19
ATOM     19 C12  MOL A   1      13.152 -19.860  -7.103  1.00  0.00     0.166 A 
ATOM     20 C13  MOL A   1      14.163 -19.029  -6.570  1.00  0.00     0.012 A 
ATOM     21 C21  MOL A   1      15.303 -19.617  -5.999  1.00  0.00    -0.054 A 
ATOM     22 C22  MOL A   1      15.462 -21.003  -6.000  1.00  0.00    -0.058 A 
ATOM     23 C23  MOL A   1      14.486 -21.819  -6.573  1.00  0.00    -0.016 A 
ATOM     24 C24  MOL A   1      13.325 -21.254  -7.133  1.00  0.00     0.161 A 
BRANCH  20  25
ATOM     25 C14  MOL A   1      14.051 -17.521  -6.598  1.00  0.00     0.028 C 
BRANCH  25  26
ATOM     26 N15  MOL A   1      15.257 -16.925  -7.209  1.00  0.00    -0.287 NA
ATOM     27 C16  MOL A   1      15.744 -15.772  -6.433  1.00  0.00     0.064 C 
ATOM     28 C17  MOL A   1      15.430 -14.795  -7.549  1.00  0.00     0.272 C 
ATOM     29 F18  MOL A   1      16.553 -14.217  -8.114  1.00  0.00    -0.204 F 
ATOM     30 F19  MOL A   1      14.431 -13.890  -7.232  1.00  0.00    -0.204 F 
ATOM     31 C20  MOL A   1      14.926 -16.006  -8.311  1.00  0.00     0.064 C 
ENDBRANCH  25  26
ENDBRANCH  20  25
BRANCH  24  32
ATOM     32 O25  MOL A   1      12.322 -22.039  -7.719  1.00  0.00    -0.493 OA
ATOM     33 C26  MOL A   1      12.193 -23.446  -7.542  1.00  0.00     0.078 C 
ENDBRANCH  24  32
ENDBRANCH  18  19
ENDBRANCH  17  18
ENDBRANCH  15  17
ENDBRANCH   8  14
ENDBRANCH   1   8
TORSDOF 10
ENDMDL
MODEL 106
REMARK VINA RESULT:    -7.683      6.715     10.961
REMARK INTER + INTRA:         -13.223
REMARK INTER:                 -11.706
REMARK INTRA:                  -1.517
REMARK UNBOUND:                -1.048
REMARK  10 active torsions:
REMARK  status: ('A' for Active; 'I' for Inactive)
REMARK   1   A    between atoms:  C27_1   and   C6_8  
REMARK   2   A    between atoms:  C6_8    and   C5_9  
REMARK   3   A    between atoms:  C5_9    and   C3_12 
REMARK   4   A    between atoms:  C6_8    and   N7_14 
REMARK   5   A    between atoms:  C8_15   and  C10_17 
REMARK   6   A    between atoms: C10_17   and  O11_18 
REMARK   7   A    between atoms: O11_18   and  C12_19 
REMARK   8   A    between atoms: C13_20   and  C14_25 
REMARK   9   A    between atoms: C14_25   and  N15_26 
REMARK   10  A    between atoms: C24_24   and  O25_32 
ROOT
ATOM      1 C27  MOL A   1       7.274 -18.708  -9.174  1.00  0.00    -0.024 A 
ATOM      2 C28  MOL A   1       7.573 -18.011 -10.359  1.00  0.00    -0.057 A 
ATOM      3 C29  MOL A   1       7.053 -16.731 -10.578  1.00  0.00    -0.061 A 
ATOM      4 C30  MOL A   1       6.230 -16.135  -9.618  1.00  0.00    -0.048 A 
ATOM      5 C31  MOL A   1       5.927 -16.816  -8.434  1.00  0.00     0.018 A 
ATOM      6 Br32 MOL A   1       4.818 -15.990  -7.112  1.00  0.00    -0.051 Br
ATOM      7 C33  MOL A   1       6.441 -18.098  -8.214  1.00  0.00    -0.043 A 
ENDROOT
BRANCH   1   8
ATOM      8  C6  MOL A   1       7.780 -20.120  -8.978  1.00  0.00     0.063 C 
BRANCH   8   9
ATOM      9  C5  MOL A   1       6.681 -20.992  -8.343  1.00  0.00     0.051 C 
BRANCH   9  12
ATOM     10  C1  MOL A   1       3.497 -22.307 -10.161  1.00  0.00     0.006 C 
ATOM     11  N2  MOL A   1       4.385 -21.726  -9.164  1.00  0.00    -0.359 N 
ATOM     12  C3  MOL A   1       5.794 -21.605  -9.387  1.00  0.00     0.222 C 
ATOM     13  O4  MOL A   1       6.300 -22.011 -10.469  1.00  0.00    -0.275 OA
ENDBRANCH   9  12
ENDBRANCH   8   9
BRANCH   8  14
ATOM     14  N7  MOL A   1       8.984 -20.116  -8.139  1.00  0.00    -0.346 N 
ATOM     15  C8  MOL A   1      10.181 -20.803  -8.509  1.00  0.00     0.258 C 
ATOM     16  O9  MOL A   1      10.233 -21.455  -9.586  1.00  0.00    -0.271 OA
BRANCH  15  17
ATOM     17 C10  MOL A   1      11.393 -20.745  -7.627  1.00  0.00     0.167 C 
BRANCH  17  18
ATOM     18 O11  MOL A   1      12.403 -19.932  -8.220  1.00  0.00    -0.480 OA
BRANCH  18  19
ATOM     19 C12  MOL A   1      13.028 -18.897  -7.519  1.00  0.00     0.166 A 
ATOM     20 C13  MOL A   1      14.180 -19.137  -6.735  1.00  0.00     0.012 A 
ATOM     21 C21  MOL A   1      14.822 -18.054  -6.112  1.00  0.00    -0.054 A 
ATOM     22 C22  MOL A   1      14.304 -16.764  -6.224  1.00  0.00    -0.058 A 
ATOM     23 C23  MOL A   1      13.139 -16.537  -6.957  1.00  0.00    -0.016 A 
ATOM     24 C24  MOL A   1      12.489 -17.603  -7.607  1.00  0.00     0.161 A 
BRANCH  20  25
ATOM     25 C14  MOL A   1      14.740 -20.530  -6.547  1.00  0.00     0.028 C 
BRANCH  25  26
ATOM     26 N15  MOL A   1      15.706 -20.846  -7.619  1.00  0.00    -0.287 NA
ATOM     27 C16  MOL A   1      15.673 -22.275  -7.973  1.00  0.00     0.064 C 
ATOM     28 C17  MOL A   1      17.080 -22.510  -7.460  1.00  0.00     0.272 C 
ATOM     29 F18  MOL A   1      17.989 -22.828  -8.454  1.00  0.00    -0.204 F 
ATOM     30 F19  MOL A   1      17.139 -23.348  -6.357  1.00  0.00    -0.204 F 
ATOM     31 C20  MOL A   1      17.070 -21.038  -7.097  1.00  0.00     0.064 C 
ENDBRANCH  25  26
ENDBRANCH  20  25
BRANCH  24  32
ATOM     32 O25  MOL A   1      11.316 -17.418  -8.352  1.00  0.00    -0.493 OA
ATOM     33 C26  MOL A   1      10.113 -16.860  -7.835  1.00  0.00     0.078 C 
ENDBRANCH  24  32
ENDBRANCH  18  19
ENDBRANCH  17  18
ENDBRANCH  15  17
ENDBRANCH   8  14
ENDBRANCH   1   8
TORSDOF 10
ENDMDL
MODEL 107
REMARK VINA RESULT:    -7.671      6.158     10.858
REMARK INTER + INTRA:         -13.203
REMARK INTER:                 -11.900
REMARK INTRA:                  -1.304
REMARK UNBOUND:                -1.048
REMARK  10 active torsions:
REMARK  status: ('A' for Active; 'I' for Inactive)
REMARK   1   A    between atoms:  C27_1   and   C6_8  
REMARK   2   A    between atoms:  C6_8    and   C5_9  
REMARK   3   A    between atoms:  C5_9    and   C3_12 
REMARK   4   A    between atoms:  C6_8    and   N7_14 
REMARK   5   A    between atoms:  C8_15   and  C10_17 
REMARK   6   A    between atoms: C10_17   and  O11_18 
REMARK   7   A    between atoms: O11_18   and  C12_19 
REMARK   8   A    between atoms: C13_20   and  C14_25 
REMARK   9   A    between atoms: C14_25   and  N15_26 
REMARK   10  A    between atoms: C24_24   and  O25_32 
ROOT
ATOM      1 C27  MOL A   1       8.157 -18.167  -9.270  1.00  0.00    -0.024 A 
ATOM      2 C28  MOL A   1       8.100 -17.484 -10.499  1.00  0.00    -0.057 A 
ATOM      3 C29  MOL A   1       7.155 -16.472 -10.703  1.00  0.00    -0.061 A 
ATOM      4 C30  MOL A   1       6.260 -16.133  -9.685  1.00  0.00    -0.048 A 
ATOM      5 C31  MOL A   1       6.307 -16.802  -8.457  1.00  0.00     0.018 A 
ATOM      6 Br32 MOL A   1       5.095 -16.323  -7.057  1.00  0.00    -0.051 Br
ATOM      7 C33  MOL A   1       7.247 -17.818  -8.252  1.00  0.00    -0.043 A 
ENDROOT
BRANCH   1   8
ATOM      8  C6  MOL A   1       9.132 -19.308  -9.083  1.00  0.00     0.063 C 
BRANCH   8   9
ATOM      9  C5  MOL A   1       8.423 -20.505  -8.423  1.00  0.00     0.051 C 
BRANCH   9  12
ATOM     10  C1  MOL A   1       6.949 -22.279 -11.562  1.00  0.00     0.006 C 
ATOM     11  N2  MOL A   1       7.872 -21.640 -10.636  1.00  0.00    -0.359 N 
ATOM     12  C3  MOL A   1       7.444 -21.150  -9.361  1.00  0.00     0.222 C 
ATOM     13  O4  MOL A   1       6.236 -21.260  -9.014  1.00  0.00    -0.275 OA
ENDBRANCH   9  12
ENDBRANCH   8   9
BRANCH   8  14
ATOM     14  N7  MOL A   1      10.274 -18.873  -8.272  1.00  0.00    -0.346 N 
ATOM     15  C8  MOL A   1      11.540 -18.536  -8.843  1.00  0.00     0.258 C 
ATOM     16  O9  MOL A   1      11.716 -18.616 -10.088  1.00  0.00    -0.271 OA
BRANCH  15  17
ATOM     17 C10  MOL A   1      12.666 -18.072  -7.970  1.00  0.00     0.167 C 
BRANCH  17  18
ATOM     18 O11  MOL A   1      13.452 -17.093  -8.647  1.00  0.00    -0.480 OA
BRANCH  18  19
ATOM     19 C12  MOL A   1      14.697 -16.680  -8.167  1.00  0.00     0.166 A 
ATOM     20 C13  MOL A   1      15.872 -17.411  -8.458  1.00  0.00     0.012 A 
ATOM     21 C21  MOL A   1      17.112 -16.917  -8.022  1.00  0.00    -0.054 A 
ATOM     22 C22  MOL A   1      17.182 -15.744  -7.269  1.00  0.00    -0.058 A 
ATOM     23 C23  MOL A   1      16.017 -15.052  -6.940  1.00  0.00    -0.016 A 
ATOM     24 C24  MOL A   1      14.765 -15.517  -7.383  1.00  0.00     0.161 A 
BRANCH  20  25
ATOM     25 C14  MOL A   1      15.830 -18.714  -9.226  1.00  0.00     0.028 C 
BRANCH  25  26
ATOM     26 N15  MOL A   1      16.635 -19.744  -8.538  1.00  0.00    -0.287 NA
ATOM     27 C16  MOL A   1      16.718 -20.983  -9.329  1.00  0.00     0.064 C 
ATOM     28 C17  MOL A   1      15.929 -21.776  -8.306  1.00  0.00     0.272 C 
ATOM     29 F18  MOL A   1      16.670 -22.758  -7.671  1.00  0.00    -0.204 F 
ATOM     30 F19  MOL A   1      14.698 -22.212  -8.768  1.00  0.00    -0.204 F 
ATOM     31 C20  MOL A   1      15.854 -20.477  -7.527  1.00  0.00     0.064 C 
ENDBRANCH  25  26
ENDBRANCH  20  25
BRANCH  24  32
ATOM     32 O25  MOL A   1      13.570 -14.850  -7.073  1.00  0.00    -0.493 OA
ATOM     33 C26  MOL A   1      12.823 -15.049  -5.878  1.00  0.00     0.078 C 
ENDBRANCH  24  32
ENDBRANCH  18  19
ENDBRANCH  17  18
ENDBRANCH  15  17
ENDBRANCH   8  14
ENDBRANCH   1   8
TORSDOF 10
ENDMDL
MODEL 108
REMARK VINA RESULT:    -7.671      6.779      9.538
REMARK INTER + INTRA:         -13.203
REMARK INTER:                 -12.431
REMARK INTRA:                  -0.773
REMARK UNBOUND:                -1.048
REMARK  10 active torsions:
REMARK  status: ('A' for Active; 'I' for Inactive)
REMARK   1   A    between atoms:  C27_1   and   C6_8  
REMARK   2   A    between atoms:  C6_8    and   C5_9  
REMARK   3   A    between atoms:  C5_9    and   C3_12 
REMARK   4   A    between atoms:  C6_8    and   N7_14 
REMARK   5   A    between atoms:  C8_15   and  C10_17 
REMARK   6   A    between atoms: C10_17   and  O11_18 
REMARK   7   A    between atoms: O11_18   and  C12_19 
REMARK   8   A    between atoms: C13_20   and  C14_25 
REMARK   9   A    between atoms: C14_25   and  N15_26 
REMARK   10  A    between atoms: C24_24   and  O25_32 
ROOT
ATOM      1 C27  MOL A   1       6.153 -20.983  -8.892  1.00  0.00    -0.024 A 
ATOM      2 C28  MOL A   1       5.971 -20.851  -7.503  1.00  0.00    -0.057 A 
ATOM      3 C29  MOL A   1       4.750 -21.196  -6.914  1.00  0.00    -0.061 A 
ATOM      4 C30  MOL A   1       3.700 -21.675  -7.703  1.00  0.00    -0.048 A 
ATOM      5 C31  MOL A   1       3.869 -21.813  -9.085  1.00  0.00     0.018 A 
ATOM      6 Br32 MOL A   1       2.439 -22.489 -10.162  1.00  0.00    -0.051 Br
ATOM      7 C33  MOL A   1       5.087 -21.464  -9.679  1.00  0.00    -0.043 A 
ENDROOT
BRANCH   1   8
ATOM      8  C6  MOL A   1       7.451 -20.539  -9.531  1.00  0.00     0.063 C 
BRANCH   8   9
ATOM      9  C5  MOL A   1       7.686 -21.314 -10.841  1.00  0.00     0.051 C 
BRANCH   9  12
ATOM     10  C1  MOL A   1      10.367 -24.130 -11.067  1.00  0.00     0.006 C 
ATOM     11  N2  MOL A   1       9.632 -22.893 -11.291  1.00  0.00    -0.359 N 
ATOM     12  C3  MOL A   1       8.415 -22.602 -10.595  1.00  0.00     0.222 C 
ATOM     13  O4  MOL A   1       7.948 -23.430  -9.765  1.00  0.00    -0.275 OA
ENDBRANCH   9  12
ENDBRANCH   8   9
BRANCH   8  14
ATOM     14  N7  MOL A   1       8.569 -20.742  -8.604  1.00  0.00    -0.346 N 
ATOM     15  C8  MOL A   1       9.314 -19.656  -8.047  1.00  0.00     0.258 C 
ATOM     16  O9  MOL A   1       9.029 -18.468  -8.354  1.00  0.00    -0.271 OA
BRANCH  15  17
ATOM     17 C10  MOL A   1      10.431 -19.919  -7.083  1.00  0.00     0.167 C 
BRANCH  17  18
ATOM     18 O11  MOL A   1      11.628 -20.251  -7.784  1.00  0.00    -0.480 OA
BRANCH  18  19
ATOM     19 C12  MOL A   1      12.848 -20.426  -7.126  1.00  0.00     0.166 A 
ATOM     20 C13  MOL A   1      13.744 -19.347  -6.948  1.00  0.00     0.012 A 
ATOM     21 C21  MOL A   1      14.924 -19.550  -6.212  1.00  0.00    -0.054 A 
ATOM     22 C22  MOL A   1      15.232 -20.812  -5.703  1.00  0.00    -0.058 A 
ATOM     23 C23  MOL A   1      14.370 -21.887  -5.923  1.00  0.00    -0.016 A 
ATOM     24 C24  MOL A   1      13.174 -21.703  -6.641  1.00  0.00     0.161 A 
BRANCH  20  25
ATOM     25 C14  MOL A   1      13.469 -17.978  -7.531  1.00  0.00     0.028 C 
BRANCH  25  26
ATOM     26 N15  MOL A   1      13.497 -16.951  -6.469  1.00  0.00    -0.287 NA
ATOM     27 C16  MOL A   1      12.675 -15.782  -6.826  1.00  0.00     0.064 C 
ATOM     28 C17  MOL A   1      13.881 -14.868  -6.909  1.00  0.00     0.272 C 
ATOM     29 F18  MOL A   1      13.905 -13.889  -5.931  1.00  0.00    -0.204 F 
ATOM     30 F19  MOL A   1      14.133 -14.392  -8.186  1.00  0.00    -0.204 F 
ATOM     31 C20  MOL A   1      14.694 -16.097  -6.553  1.00  0.00     0.064 C 
ENDBRANCH  25  26
ENDBRANCH  20  25
BRANCH  24  32
ATOM     32 O25  MOL A   1      12.281 -22.757  -6.884  1.00  0.00    -0.493 OA
ATOM     33 C26  MOL A   1      12.321 -23.597  -8.033  1.00  0.00     0.078 C 
ENDBRANCH  24  32
ENDBRANCH  18  19
ENDBRANCH  17  18
ENDBRANCH  15  17
ENDBRANCH   8  14
ENDBRANCH   1   8
TORSDOF 10
ENDMDL
MODEL 109
REMARK VINA RESULT:    -7.668      5.878     10.013
REMARK INTER + INTRA:         -13.198
REMARK INTER:                 -12.329
REMARK INTRA:                  -0.869
REMARK UNBOUND:                -1.048
REMARK  10 active torsions:
REMARK  status: ('A' for Active; 'I' for Inactive)
REMARK   1   A    between atoms:  C27_1   and   C6_8  
REMARK   2   A    between atoms:  C6_8    and   C5_9  
REMARK   3   A    between atoms:  C5_9    and   C3_12 
REMARK   4   A    between atoms:  C6_8    and   N7_14 
REMARK   5   A    between atoms:  C8_15   and  C10_17 
REMARK   6   A    between atoms: C10_17   and  O11_18 
REMARK   7   A    between atoms: O11_18   and  C12_19 
REMARK   8   A    between atoms: C13_20   and  C14_25 
REMARK   9   A    between atoms: C14_25   and  N15_26 
REMARK   10  A    between atoms: C24_24   and  O25_32 
ROOT
ATOM      1 C27  MOL A   1       7.428 -17.215 -10.432  1.00  0.00    -0.024 A 
ATOM      2 C28  MOL A   1       7.634 -17.909 -11.638  1.00  0.00    -0.057 A 
ATOM      3 C29  MOL A   1       7.080 -17.434 -12.832  1.00  0.00    -0.061 A 
ATOM      4 C30  MOL A   1       6.315 -16.264 -12.833  1.00  0.00    -0.048 A 
ATOM      5 C31  MOL A   1       6.105 -15.563 -11.640  1.00  0.00     0.018 A 
ATOM      6 Br32 MOL A   1       5.077 -13.950 -11.646  1.00  0.00    -0.051 Br
ATOM      7 C33  MOL A   1       6.653 -16.038 -10.444  1.00  0.00    -0.043 A 
ENDROOT
BRANCH   1   8
ATOM      8  C6  MOL A   1       7.970 -17.775  -9.134  1.00  0.00     0.063 C 
BRANCH   8   9
ATOM      9  C5  MOL A   1       6.811 -18.083  -8.168  1.00  0.00     0.051 C 
BRANCH   9  12
ATOM     10  C1  MOL A   1       4.776 -21.363  -7.649  1.00  0.00     0.006 C 
ATOM     11  N2  MOL A   1       5.214 -19.977  -7.578  1.00  0.00    -0.359 N 
ATOM     12  C3  MOL A   1       6.392 -19.522  -8.252  1.00  0.00     0.222 C 
ATOM     13  O4  MOL A   1       7.086 -20.330  -8.928  1.00  0.00    -0.275 OA
ENDBRANCH   9  12
ENDBRANCH   8   9
BRANCH   8  14
ATOM     14  N7  MOL A   1       8.911 -16.829  -8.526  1.00  0.00    -0.346 N 
ATOM     15  C8  MOL A   1      10.098 -17.251  -7.852  1.00  0.00     0.258 C 
ATOM     16  O9  MOL A   1      10.369 -18.477  -7.750  1.00  0.00    -0.271 OA
BRANCH  15  17
ATOM     17 C10  MOL A   1      11.041 -16.240  -7.271  1.00  0.00     0.167 C 
BRANCH  17  18
ATOM     18 O11  MOL A   1      12.212 -16.879  -6.770  1.00  0.00    -0.480 OA
BRANCH  18  19
ATOM     19 C12  MOL A   1      13.491 -16.539  -7.218  1.00  0.00     0.166 A 
ATOM     20 C13  MOL A   1      14.155 -15.390  -6.731  1.00  0.00     0.012 A 
ATOM     21 C21  MOL A   1      15.471 -15.130  -7.149  1.00  0.00    -0.054 A 
ATOM     22 C22  MOL A   1      16.100 -15.967  -8.071  1.00  0.00    -0.058 A 
ATOM     23 C23  MOL A   1      15.424 -17.072  -8.589  1.00  0.00    -0.016 A 
ATOM     24 C24  MOL A   1      14.113 -17.364  -8.170  1.00  0.00     0.161 A 
BRANCH  20  25
ATOM     25 C14  MOL A   1      13.487 -14.431  -5.771  1.00  0.00     0.028 C 
BRANCH  25  26
ATOM     26 N15  MOL A   1      13.576 -14.939  -4.387  1.00  0.00    -0.287 NA
ATOM     27 C16  MOL A   1      14.282 -13.993  -3.507  1.00  0.00     0.064 C 
ATOM     28 C17  MOL A   1      15.443 -14.944  -3.293  1.00  0.00     0.272 C 
ATOM     29 F18  MOL A   1      15.547 -15.410  -1.994  1.00  0.00    -0.204 F 
ATOM     30 F19  MOL A   1      16.639 -14.492  -3.825  1.00  0.00    -0.204 F 
ATOM     31 C20  MOL A   1      14.692 -15.885  -4.214  1.00  0.00     0.064 C 
ENDBRANCH  25  26
ENDBRANCH  20  25
BRANCH  24  32
ATOM     32 O25  MOL A   1      13.399 -18.465  -8.667  1.00  0.00    -0.493 OA
ATOM     33 C26  MOL A   1      13.385 -18.865 -10.033  1.00  0.00     0.078 C 
ENDBRANCH  24  32
ENDBRANCH  18  19
ENDBRANCH  17  18
ENDBRANCH  15  17
ENDBRANCH   8  14
ENDBRANCH   1   8
TORSDOF 10
ENDMDL
MODEL 110
REMARK VINA RESULT:    -7.666      6.742      9.909
REMARK INTER + INTRA:         -13.195
REMARK INTER:                 -12.402
REMARK INTRA:                  -0.794
REMARK UNBOUND:                -1.048
REMARK  10 active torsions:
REMARK  status: ('A' for Active; 'I' for Inactive)
REMARK   1   A    between atoms:  C27_1   and   C6_8  
REMARK   2   A    between atoms:  C6_8    and   C5_9  
REMARK   3   A    between atoms:  C5_9    and   C3_12 
REMARK   4   A    between atoms:  C6_8    and   N7_14 
REMARK   5   A    between atoms:  C8_15   and  C10_17 
REMARK   6   A    between atoms: C10_17   and  O11_18 
REMARK   7   A    between atoms: O11_18   and  C12_19 
REMARK   8   A    between atoms: C13_20   and  C14_25 
REMARK   9   A    between atoms: C14_25   and  N15_26 
REMARK   10  A    between atoms: C24_24   and  O25_32 
ROOT
ATOM      1 C27  MOL A   1      -0.246 -22.332  -9.770  1.00  0.00    -0.024 A 
ATOM      2 C28  MOL A   1      -0.727 -23.653  -9.730  1.00  0.00    -0.057 A 
ATOM      3 C29  MOL A   1      -1.494 -24.160 -10.784  1.00  0.00    -0.061 A 
ATOM      4 C30  MOL A   1      -1.789 -23.353 -11.887  1.00  0.00    -0.048 A 
ATOM      5 C31  MOL A   1      -1.315 -22.038 -11.941  1.00  0.00     0.018 A 
ATOM      6 Br32 MOL A   1      -1.701 -20.942 -13.461  1.00  0.00    -0.051 Br
ATOM      7 C33  MOL A   1      -0.552 -21.527 -10.886  1.00  0.00    -0.043 A 
ENDROOT
BRANCH   1   8
ATOM      8  C6  MOL A   1       0.522 -21.769  -8.594  1.00  0.00     0.063 C 
BRANCH   8   9
ATOM      9  C5  MOL A   1      -0.231 -20.564  -8.001  1.00  0.00     0.051 C 
BRANCH   9  12
ATOM     10  C1  MOL A   1      -4.107 -20.548  -7.612  1.00  0.00     0.006 C 
ATOM     11  N2  MOL A   1      -2.752 -20.199  -8.014  1.00  0.00    -0.359 N 
ATOM     12  C3  MOL A   1      -1.615 -20.942  -7.560  1.00  0.00     0.222 C 
ATOM     13  O4  MOL A   1      -1.771 -21.925  -6.785  1.00  0.00    -0.275 OA
ENDBRANCH   9  12
ENDBRANCH   8   9
BRANCH   8  14
ATOM     14  N7  MOL A   1       1.874 -21.380  -9.008  1.00  0.00    -0.346 N 
ATOM     15  C8  MOL A   1       2.986 -21.389  -8.110  1.00  0.00     0.258 C 
ATOM     16  O9  MOL A   1       2.829 -21.729  -6.908  1.00  0.00    -0.271 OA
BRANCH  15  17
ATOM     17 C10  MOL A   1       4.353 -21.007  -8.593  1.00  0.00     0.167 C 
BRANCH  17  18
ATOM     18 O11  MOL A   1       5.018 -20.202  -7.622  1.00  0.00    -0.480 OA
BRANCH  18  19
ATOM     19 C12  MOL A   1       5.986 -19.259  -7.979  1.00  0.00     0.166 A 
ATOM     20 C13  MOL A   1       7.219 -19.656  -8.546  1.00  0.00     0.012 A 
ATOM     21 C21  MOL A   1       8.130 -18.672  -8.962  1.00  0.00    -0.054 A 
ATOM     22 C22  MOL A   1       7.846 -17.319  -8.775  1.00  0.00    -0.058 A 
ATOM     23 C23  MOL A   1       6.651 -16.931  -8.169  1.00  0.00    -0.016 A 
ATOM     24 C24  MOL A   1       5.713 -17.899  -7.762  1.00  0.00     0.161 A 
BRANCH  20  25
ATOM     25 C14  MOL A   1       7.585 -21.114  -8.716  1.00  0.00     0.028 C 
BRANCH  25  26
ATOM     26 N15  MOL A   1       8.461 -21.292  -9.892  1.00  0.00    -0.287 NA
ATOM     27 C16  MOL A   1       8.034 -22.434 -10.718  1.00  0.00     0.064 C 
ATOM     28 C17  MOL A   1       9.293 -23.220 -10.412  1.00  0.00     0.272 C 
ATOM     29 F18  MOL A   1      10.110 -23.410 -11.513  1.00  0.00    -0.204 F 
ATOM     30 F19  MOL A   1       9.067 -24.372  -9.676  1.00  0.00    -0.204 F 
ATOM     31 C20  MOL A   1       9.692 -22.030  -9.562  1.00  0.00     0.064 C 
ENDBRANCH  25  26
ENDBRANCH  20  25
BRANCH  24  32
ATOM     32 O25  MOL A   1       4.501 -17.551  -7.148  1.00  0.00    -0.493 OA
ATOM     33 C26  MOL A   1       4.163 -16.236  -6.722  1.00  0.00     0.078 C 
ENDBRANCH  24  32
ENDBRANCH  18  19
ENDBRANCH  17  18
ENDBRANCH  15  17
ENDBRANCH   8  14
ENDBRANCH   1   8
TORSDOF 10
ENDMDL
MODEL 111
REMARK VINA RESULT:    -7.664      4.891      9.821
REMARK INTER + INTRA:         -13.193
REMARK INTER:                 -11.981
REMARK INTRA:                  -1.213
REMARK UNBOUND:                -1.048
REMARK  10 active torsions:
REMARK  status: ('A' for Active; 'I' for Inactive)
REMARK   1   A    between atoms:  C27_1   and   C6_8  
REMARK   2   A    between atoms:  C6_8    and   C5_9  
REMARK   3   A    between atoms:  C5_9    and   C3_12 
REMARK   4   A    between atoms:  C6_8    and   N7_14 
REMARK   5   A    between atoms:  C8_15   and  C10_17 
REMARK   6   A    between atoms: C10_17   and  O11_18 
REMARK   7   A    between atoms: O11_18   and  C12_19 
REMARK   8   A    between atoms: C13_20   and  C14_25 
REMARK   9   A    between atoms: C14_25   and  N15_26 
REMARK   10  A    between atoms: C24_24   and  O25_32 
ROOT
ATOM      1 C27  MOL A   1       7.930 -19.972 -10.284  1.00  0.00    -0.024 A 
ATOM      2 C28  MOL A   1       8.843 -21.019 -10.508  1.00  0.00    -0.057 A 
ATOM      3 C29  MOL A   1       8.404 -22.347 -10.533  1.00  0.00    -0.061 A 
ATOM      4 C30  MOL A   1       7.053 -22.643 -10.335  1.00  0.00    -0.048 A 
ATOM      5 C31  MOL A   1       6.134 -21.611 -10.114  1.00  0.00     0.018 A 
ATOM      6 Br32 MOL A   1       4.281 -22.016  -9.864  1.00  0.00    -0.051 Br
ATOM      7 C33  MOL A   1       6.570 -20.282 -10.083  1.00  0.00    -0.043 A 
ENDROOT
BRANCH   1   8
ATOM      8  C6  MOL A   1       8.424 -18.545 -10.185  1.00  0.00     0.063 C 
BRANCH   8   9
ATOM      9  C5  MOL A   1       7.940 -17.735 -11.402  1.00  0.00     0.051 C 
BRANCH   9  12
ATOM     10  C1  MOL A   1       5.351 -14.830 -11.596  1.00  0.00     0.006 C 
ATOM     11  N2  MOL A   1       6.250 -15.914 -11.966  1.00  0.00    -0.359 N 
ATOM     12  C3  MOL A   1       7.030 -16.614 -10.990  1.00  0.00     0.222 C 
ATOM     13  O4  MOL A   1       6.955 -16.293  -9.772  1.00  0.00    -0.275 OA
ENDBRANCH   9  12
ENDBRANCH   8   9
BRANCH   8  14
ATOM     14  N7  MOL A   1       9.888 -18.518 -10.097  1.00  0.00    -0.346 N 
ATOM     15  C8  MOL A   1      10.585 -17.755  -9.110  1.00  0.00     0.258 C 
ATOM     16  O9  MOL A   1       9.945 -17.059  -8.276  1.00  0.00    -0.271 OA
BRANCH  15  17
ATOM     17 C10  MOL A   1      12.082 -17.784  -9.047  1.00  0.00     0.167 C 
BRANCH  17  18
ATOM     18 O11  MOL A   1      12.553 -19.127  -8.975  1.00  0.00    -0.480 OA
BRANCH  18  19
ATOM     19 C12  MOL A   1      13.100 -19.660  -7.805  1.00  0.00     0.166 A 
ATOM     20 C13  MOL A   1      14.229 -19.070  -7.191  1.00  0.00     0.012 A 
ATOM     21 C21  MOL A   1      14.697 -19.591  -5.974  1.00  0.00    -0.054 A 
ATOM     22 C22  MOL A   1      14.088 -20.706  -5.399  1.00  0.00    -0.058 A 
ATOM     23 C23  MOL A   1      13.005 -21.317  -6.032  1.00  0.00    -0.016 A 
ATOM     24 C24  MOL A   1      12.506 -20.801  -7.243  1.00  0.00     0.161 A 
BRANCH  20  25
ATOM     25 C14  MOL A   1      14.948 -17.893  -7.812  1.00  0.00     0.028 C 
BRANCH  25  26
ATOM     26 N15  MOL A   1      15.757 -17.189  -6.795  1.00  0.00    -0.287 NA
ATOM     27 C16  MOL A   1      15.435 -15.752  -6.747  1.00  0.00     0.064 C 
ATOM     28 C17  MOL A   1      16.809 -15.353  -7.247  1.00  0.00     0.272 C 
ATOM     29 F18  MOL A   1      17.566 -14.674  -6.308  1.00  0.00    -0.204 F 
ATOM     30 F19  MOL A   1      16.795 -14.754  -8.496  1.00  0.00    -0.204 F 
ATOM     31 C20  MOL A   1      17.098 -16.840  -7.296  1.00  0.00     0.064 C 
ENDBRANCH  25  26
ENDBRANCH  20  25
BRANCH  24  32
ATOM     32 O25  MOL A   1      11.421 -21.387  -7.911  1.00  0.00    -0.493 OA
ATOM     33 C26  MOL A   1      11.340 -22.764  -8.264  1.00  0.00     0.078 C 
ENDBRANCH  24  32
ENDBRANCH  18  19
ENDBRANCH  17  18
ENDBRANCH  15  17
ENDBRANCH   8  14
ENDBRANCH   1   8
TORSDOF 10
ENDMDL
MODEL 112
REMARK VINA RESULT:    -7.656      7.133     11.475
REMARK INTER + INTRA:         -13.180
REMARK INTER:                 -11.953
REMARK INTRA:                  -1.226
REMARK UNBOUND:                -1.048
REMARK  10 active torsions:
REMARK  status: ('A' for Active; 'I' for Inactive)
REMARK   1   A    between atoms:  C27_1   and   C6_8  
REMARK   2   A    between atoms:  C6_8    and   C5_9  
REMARK   3   A    between atoms:  C5_9    and   C3_12 
REMARK   4   A    between atoms:  C6_8    and   N7_14 
REMARK   5   A    between atoms:  C8_15   and  C10_17 
REMARK   6   A    between atoms: C10_17   and  O11_18 
REMARK   7   A    between atoms: O11_18   and  C12_19 
REMARK   8   A    between atoms: C13_20   and  C14_25 
REMARK   9   A    between atoms: C14_25   and  N15_26 
REMARK   10  A    between atoms: C24_24   and  O25_32 
ROOT
ATOM      1 C27  MOL A   1      10.349 -17.754  -8.530  1.00  0.00    -0.024 A 
ATOM      2 C28  MOL A   1       9.719 -16.677  -7.882  1.00  0.00    -0.057 A 
ATOM      3 C29  MOL A   1       8.489 -16.195  -8.344  1.00  0.00    -0.061 A 
ATOM      4 C30  MOL A   1       7.879 -16.782  -9.456  1.00  0.00    -0.048 A 
ATOM      5 C31  MOL A   1       8.494 -17.857 -10.107  1.00  0.00     0.018 A 
ATOM      6 Br32 MOL A   1       7.648 -18.675 -11.616  1.00  0.00    -0.051 Br
ATOM      7 C33  MOL A   1       9.726 -18.338  -9.651  1.00  0.00    -0.043 A 
ENDROOT
BRANCH   1   8
ATOM      8  C6  MOL A   1      11.713 -18.222  -8.068  1.00  0.00     0.063 C 
BRANCH   8   9
ATOM      9  C5  MOL A   1      11.655 -19.710  -7.676  1.00  0.00     0.051 C 
BRANCH   9  12
ATOM     10  C1  MOL A   1      15.327 -20.340  -8.813  1.00  0.00     0.006 C 
ATOM     11  N2  MOL A   1      14.068 -19.684  -8.489  1.00  0.00    -0.359 N 
ATOM     12  C3  MOL A   1      12.936 -20.418  -8.012  1.00  0.00     0.222 C 
ATOM     13  O4  MOL A   1      13.008 -21.669  -7.868  1.00  0.00    -0.275 OA
ENDBRANCH   9  12
ENDBRANCH   8   9
BRANCH   8  14
ATOM     14  N7  MOL A   1      12.173 -17.409  -6.937  1.00  0.00    -0.346 N 
ATOM     15  C8  MOL A   1      13.193 -16.416  -7.070  1.00  0.00     0.258 C 
ATOM     16  O9  MOL A   1      13.743 -16.215  -8.185  1.00  0.00    -0.271 OA
BRANCH  15  17
ATOM     17 C10  MOL A   1      13.608 -15.594  -5.887  1.00  0.00     0.167 C 
BRANCH  17  18
ATOM     18 O11  MOL A   1      14.994 -15.269  -5.967  1.00  0.00    -0.480 OA
BRANCH  18  19
ATOM     19 C12  MOL A   1      15.986 -16.135  -5.501  1.00  0.00     0.166 A 
ATOM     20 C13  MOL A   1      16.028 -16.540  -4.148  1.00  0.00     0.012 A 
ATOM     21 C21  MOL A   1      16.995 -17.474  -3.741  1.00  0.00    -0.054 A 
ATOM     22 C22  MOL A   1      17.935 -17.961  -4.649  1.00  0.00    -0.058 A 
ATOM     23 C23  MOL A   1      17.924 -17.522  -5.973  1.00  0.00    -0.016 A 
ATOM     24 C24  MOL A   1      16.952 -16.602  -6.408  1.00  0.00     0.161 A 
BRANCH  20  25
ATOM     25 C14  MOL A   1      15.059 -15.994  -3.123  1.00  0.00     0.028 C 
BRANCH  25  26
ATOM     26 N15  MOL A   1      15.499 -14.664  -2.654  1.00  0.00    -0.287 NA
ATOM     27 C16  MOL A   1      16.033 -14.723  -1.283  1.00  0.00     0.064 C 
ATOM     28 C17  MOL A   1      14.903 -13.879  -0.728  1.00  0.00     0.272 C 
ATOM     29 F18  MOL A   1      15.309 -12.639  -0.267  1.00  0.00    -0.204 F 
ATOM     30 F19  MOL A   1      14.077 -14.561   0.151  1.00  0.00    -0.204 F 
ATOM     31 C20  MOL A   1      14.378 -13.853  -2.150  1.00  0.00     0.064 C 
ENDBRANCH  25  26
ENDBRANCH  20  25
BRANCH  24  32
ATOM     32 O25  MOL A   1      16.907 -16.135  -7.730  1.00  0.00    -0.493 OA
ATOM     33 C26  MOL A   1      17.336 -16.882  -8.864  1.00  0.00     0.078 C 
ENDBRANCH  24  32
ENDBRANCH  18  19
ENDBRANCH  17  18
ENDBRANCH  15  17
ENDBRANCH   8  14
ENDBRANCH   1   8
TORSDOF 10
ENDMDL
MODEL 113
REMARK VINA RESULT:    -7.652      6.775      9.717
REMARK INTER + INTRA:         -13.173
REMARK INTER:                 -11.653
REMARK INTRA:                  -1.521
REMARK UNBOUND:                -1.048
REMARK  10 active torsions:
REMARK  status: ('A' for Active; 'I' for Inactive)
REMARK   1   A    between atoms:  C27_1   and   C6_8  
REMARK   2   A    between atoms:  C6_8    and   C5_9  
REMARK   3   A    between atoms:  C5_9    and   C3_12 
REMARK   4   A    between atoms:  C6_8    and   N7_14 
REMARK   5   A    between atoms:  C8_15   and  C10_17 
REMARK   6   A    between atoms: C10_17   and  O11_18 
REMARK   7   A    between atoms: O11_18   and  C12_19 
REMARK   8   A    between atoms: C13_20   and  C14_25 
REMARK   9   A    between atoms: C14_25   and  N15_26 
REMARK   10  A    between atoms: C24_24   and  O25_32 
ROOT
ATOM      1 C27  MOL A   1       6.534 -20.167  -9.459  1.00  0.00    -0.024 A 
ATOM      2 C28  MOL A   1       5.844 -21.227  -8.844  1.00  0.00    -0.057 A 
ATOM      3 C29  MOL A   1       4.993 -20.983  -7.761  1.00  0.00    -0.061 A 
ATOM      4 C30  MOL A   1       4.823 -19.681  -7.282  1.00  0.00    -0.048 A 
ATOM      5 C31  MOL A   1       5.502 -18.617  -7.886  1.00  0.00     0.018 A 
ATOM      6 Br32 MOL A   1       5.252 -16.832  -7.243  1.00  0.00    -0.051 Br
ATOM      7 C33  MOL A   1       6.358 -18.858  -8.966  1.00  0.00    -0.043 A 
ENDROOT
BRANCH   1   8
ATOM      8  C6  MOL A   1       7.508 -20.448 -10.583  1.00  0.00     0.063 C 
BRANCH   8   9
ATOM      9  C5  MOL A   1       7.310 -21.882 -11.106  1.00  0.00     0.051 C 
BRANCH   9  12
ATOM     10  C1  MOL A   1       9.608 -24.407  -9.230  1.00  0.00     0.006 C 
ATOM     11  N2  MOL A   1       8.489 -23.542  -9.576  1.00  0.00    -0.359 N 
ATOM     12  C3  MOL A   1       8.484 -22.757 -10.773  1.00  0.00     0.222 C 
ATOM     13  O4  MOL A   1       9.468 -22.798 -11.561  1.00  0.00    -0.275 OA
ENDBRANCH   9  12
ENDBRANCH   8   9
BRANCH   8  14
ATOM     14  N7  MOL A   1       8.887 -20.253 -10.121  1.00  0.00    -0.346 N 
ATOM     15  C8  MOL A   1       9.772 -19.304 -10.721  1.00  0.00     0.258 C 
ATOM     16  O9  MOL A   1       9.385 -18.600 -11.691  1.00  0.00    -0.271 OA
BRANCH  15  17
ATOM     17 C10  MOL A   1      11.164 -19.126 -10.192  1.00  0.00     0.167 C 
BRANCH  17  18
ATOM     18 O11  MOL A   1      11.174 -19.227  -8.770  1.00  0.00    -0.480 OA
BRANCH  18  19
ATOM     19 C12  MOL A   1      11.695 -18.215  -7.960  1.00  0.00     0.166 A 
ATOM     20 C13  MOL A   1      13.051 -18.226  -7.557  1.00  0.00     0.012 A 
ATOM     21 C21  MOL A   1      13.552 -17.148  -6.808  1.00  0.00    -0.054 A 
ATOM     22 C22  MOL A   1      12.712 -16.102  -6.424  1.00  0.00    -0.058 A 
ATOM     23 C23  MOL A   1      11.364 -16.119  -6.779  1.00  0.00    -0.016 A 
ATOM     24 C24  MOL A   1      10.844 -17.178  -7.546  1.00  0.00     0.161 A 
BRANCH  20  25
ATOM     25 C14  MOL A   1      13.977 -19.368  -7.910  1.00  0.00     0.028 C 
BRANCH  25  26
ATOM     26 N15  MOL A   1      13.737 -20.521  -7.018  1.00  0.00    -0.287 NA
ATOM     27 C16  MOL A   1      14.947 -20.881  -6.260  1.00  0.00     0.064 C 
ATOM     28 C17  MOL A   1      15.079 -22.218  -6.962  1.00  0.00     0.272 C 
ATOM     29 F18  MOL A   1      14.876 -23.305  -6.130  1.00  0.00    -0.204 F 
ATOM     30 F19  MOL A   1      16.210 -22.322  -7.756  1.00  0.00    -0.204 F 
ATOM     31 C20  MOL A   1      13.839 -21.806  -7.732  1.00  0.00     0.064 C 
ENDBRANCH  25  26
ENDBRANCH  20  25
BRANCH  24  32
ATOM     32 O25  MOL A   1       9.494 -17.232  -7.923  1.00  0.00    -0.493 OA
ATOM     33 C26  MOL A   1       8.705 -16.096  -8.259  1.00  0.00     0.078 C 
ENDBRANCH  24  32
ENDBRANCH  18  19
ENDBRANCH  17  18
ENDBRANCH  15  17
ENDBRANCH   8  14
ENDBRANCH   1   8
TORSDOF 10
ENDMDL
MODEL 114
REMARK VINA RESULT:    -7.646      5.204      9.506
REMARK INTER + INTRA:         -13.164
REMARK INTER:                 -12.443
REMARK INTRA:                  -0.721
REMARK UNBOUND:                -1.048
REMARK  10 active torsions:
REMARK  status: ('A' for Active; 'I' for Inactive)
REMARK   1   A    between atoms:  C27_1   and   C6_8  
REMARK   2   A    between atoms:  C6_8    and   C5_9  
REMARK   3   A    between atoms:  C5_9    and   C3_12 
REMARK   4   A    between atoms:  C6_8    and   N7_14 
REMARK   5   A    between atoms:  C8_15   and  C10_17 
REMARK   6   A    between atoms: C10_17   and  O11_18 
REMARK   7   A    between atoms: O11_18   and  C12_19 
REMARK   8   A    between atoms: C13_20   and  C14_25 
REMARK   9   A    between atoms: C14_25   and  N15_26 
REMARK   10  A    between atoms: C24_24   and  O25_32 
ROOT
ATOM      1 C27  MOL A   1       6.765 -17.292  -8.138  1.00  0.00    -0.024 A 
ATOM      2 C28  MOL A   1       6.191 -16.189  -7.481  1.00  0.00    -0.057 A 
ATOM      3 C29  MOL A   1       4.948 -16.310  -6.849  1.00  0.00    -0.061 A 
ATOM      4 C30  MOL A   1       4.268 -17.531  -6.869  1.00  0.00    -0.048 A 
ATOM      5 C31  MOL A   1       4.829 -18.637  -7.516  1.00  0.00     0.018 A 
ATOM      6 Br32 MOL A   1       3.907 -20.313  -7.523  1.00  0.00    -0.051 Br
ATOM      7 C33  MOL A   1       6.069 -18.518  -8.153  1.00  0.00    -0.043 A 
ENDROOT
BRANCH   1   8
ATOM      8  C6  MOL A   1       8.075 -17.134  -8.880  1.00  0.00     0.063 C 
BRANCH   8   9
ATOM      9  C5  MOL A   1       7.813 -17.024 -10.393  1.00  0.00     0.051 C 
BRANCH   9  12
ATOM     10  C1  MOL A   1       7.162 -20.651 -11.658  1.00  0.00     0.006 C 
ATOM     11  N2  MOL A   1       7.007 -19.365 -10.994  1.00  0.00    -0.359 N 
ATOM     12  C3  MOL A   1       8.007 -18.344 -11.082  1.00  0.00     0.222 C 
ATOM     13  O4  MOL A   1       9.061 -18.548 -11.745  1.00  0.00    -0.275 OA
ENDBRANCH   9  12
ENDBRANCH   8   9
BRANCH   8  14
ATOM     14  N7  MOL A   1       8.963 -18.264  -8.590  1.00  0.00    -0.346 N 
ATOM     15  C8  MOL A   1      10.208 -18.108  -7.906  1.00  0.00     0.258 C 
ATOM     16  O9  MOL A   1      10.589 -16.966  -7.533  1.00  0.00    -0.271 OA
BRANCH  15  17
ATOM     17 C10  MOL A   1      11.067 -19.301  -7.611  1.00  0.00     0.167 C 
BRANCH  17  18
ATOM     18 O11  MOL A   1      12.337 -18.891  -7.110  1.00  0.00    -0.480 OA
BRANCH  18  19
ATOM     19 C12  MOL A   1      13.526 -19.167  -7.790  1.00  0.00     0.166 A 
ATOM     20 C13  MOL A   1      14.304 -18.130  -8.355  1.00  0.00     0.012 A 
ATOM     21 C21  MOL A   1      15.531 -18.446  -8.960  1.00  0.00    -0.054 A 
ATOM     22 C22  MOL A   1      15.958 -19.771  -9.047  1.00  0.00    -0.058 A 
ATOM     23 C23  MOL A   1      15.165 -20.798  -8.533  1.00  0.00    -0.016 A 
ATOM     24 C24  MOL A   1      13.941 -20.504  -7.905  1.00  0.00     0.161 A 
BRANCH  20  25
ATOM     25 C14  MOL A   1      13.849 -16.688  -8.327  1.00  0.00     0.028 C 
BRANCH  25  26
ATOM     26 N15  MOL A   1      14.629 -15.920  -7.336  1.00  0.00    -0.287 NA
ATOM     27 C16  MOL A   1      14.336 -16.355  -5.960  1.00  0.00     0.064 C 
ATOM     28 C17  MOL A   1      13.701 -15.028  -5.597  1.00  0.00     0.272 C 
ATOM     29 F18  MOL A   1      14.415 -14.310  -4.653  1.00  0.00    -0.204 F 
ATOM     30 F19  MOL A   1      12.344 -15.113  -5.329  1.00  0.00    -0.204 F 
ATOM     31 C20  MOL A   1      14.008 -14.621  -7.025  1.00  0.00     0.064 C 
ENDBRANCH  25  26
ENDBRANCH  20  25
BRANCH  24  32
ATOM     32 O25  MOL A   1      13.114 -21.507  -7.377  1.00  0.00    -0.493 OA
ATOM     33 C26  MOL A   1      13.081 -22.852  -7.843  1.00  0.00     0.078 C 
ENDBRANCH  24  32
ENDBRANCH  18  19
ENDBRANCH  17  18
ENDBRANCH  15  17
ENDBRANCH   8  14
ENDBRANCH   1   8
TORSDOF 10
ENDMDL
MODEL 115
REMARK VINA RESULT:    -7.644      5.608      9.545
REMARK INTER + INTRA:         -13.161
REMARK INTER:                 -11.800
REMARK INTRA:                  -1.361
REMARK UNBOUND:                -1.048
REMARK  10 active torsions:
REMARK  status: ('A' for Active; 'I' for Inactive)
REMARK   1   A    between atoms:  C27_1   and   C6_8  
REMARK   2   A    between atoms:  C6_8    and   C5_9  
REMARK   3   A    between atoms:  C5_9    and   C3_12 
REMARK   4   A    between atoms:  C6_8    and   N7_14 
REMARK   5   A    between atoms:  C8_15   and  C10_17 
REMARK   6   A    between atoms: C10_17   and  O11_18 
REMARK   7   A    between atoms: O11_18   and  C12_19 
REMARK   8   A    between atoms: C13_20   and  C14_25 
REMARK   9   A    between atoms: C14_25   and  N15_26 
REMARK   10  A    between atoms: C24_24   and  O25_32 
ROOT
ATOM      1 C27  MOL A   1       6.560 -18.327  -8.431  1.00  0.00    -0.024 A 
ATOM      2 C28  MOL A   1       5.838 -19.524  -8.275  1.00  0.00    -0.057 A 
ATOM      3 C29  MOL A   1       4.639 -19.537  -7.554  1.00  0.00    -0.061 A 
ATOM      4 C30  MOL A   1       4.150 -18.358  -6.983  1.00  0.00    -0.048 A 
ATOM      5 C31  MOL A   1       4.858 -17.161  -7.134  1.00  0.00     0.018 A 
ATOM      6 Br32 MOL A   1       4.177 -15.543  -6.371  1.00  0.00    -0.051 Br
ATOM      7 C33  MOL A   1       6.060 -17.144  -7.849  1.00  0.00    -0.043 A 
ENDROOT
BRANCH   1   8
ATOM      8  C6  MOL A   1       7.892 -18.335  -9.149  1.00  0.00     0.063 C 
BRANCH   8   9
ATOM      9  C5  MOL A   1       7.758 -19.060 -10.501  1.00  0.00     0.051 C 
BRANCH   9  12
ATOM     10  C1  MOL A   1      11.301 -19.072 -12.121  1.00  0.00     0.006 C 
ATOM     11  N2  MOL A   1      10.000 -18.636 -11.634  1.00  0.00    -0.359 N 
ATOM     12  C3  MOL A   1       9.089 -19.542 -11.002  1.00  0.00     0.222 C 
ATOM     13  O4  MOL A   1       9.401 -20.756 -10.858  1.00  0.00    -0.275 OA
ENDBRANCH   9  12
ENDBRANCH   8   9
BRANCH   8  14
ATOM     14  N7  MOL A   1       8.914 -18.980  -8.318  1.00  0.00    -0.346 N 
ATOM     15  C8  MOL A   1      10.139 -18.333  -7.964  1.00  0.00     0.258 C 
ATOM     16  O9  MOL A   1      10.383 -17.168  -8.375  1.00  0.00    -0.271 OA
BRANCH  15  17
ATOM     17 C10  MOL A   1      11.138 -19.028  -7.089  1.00  0.00     0.167 C 
BRANCH  17  18
ATOM     18 O11  MOL A   1      12.242 -19.492  -7.863  1.00  0.00    -0.480 OA
BRANCH  18  19
ATOM     19 C12  MOL A   1      13.417 -19.962  -7.271  1.00  0.00     0.166 A 
ATOM     20 C13  MOL A   1      14.513 -19.100  -7.037  1.00  0.00     0.012 A 
ATOM     21 C21  MOL A   1      15.645 -19.596  -6.368  1.00  0.00    -0.054 A 
ATOM     22 C22  MOL A   1      15.708 -20.934  -5.981  1.00  0.00    -0.058 A 
ATOM     23 C23  MOL A   1      14.646 -21.795  -6.258  1.00  0.00    -0.016 A 
ATOM     24 C24  MOL A   1      13.494 -21.316  -6.909  1.00  0.00     0.161 A 
BRANCH  20  25
ATOM     25 C14  MOL A   1      14.502 -17.656  -7.490  1.00  0.00     0.028 C 
BRANCH  25  26
ATOM     26 N15  MOL A   1      14.154 -16.765  -6.364  1.00  0.00    -0.287 NA
ATOM     27 C16  MOL A   1      13.106 -15.802  -6.740  1.00  0.00     0.064 C 
ATOM     28 C17  MOL A   1      14.042 -14.618  -6.603  1.00  0.00     0.272 C 
ATOM     29 F18  MOL A   1      13.712 -13.766  -5.563  1.00  0.00    -0.204 F 
ATOM     30 F19  MOL A   1      14.300 -13.969  -7.800  1.00  0.00    -0.204 F 
ATOM     31 C20  MOL A   1      15.097 -15.642  -6.233  1.00  0.00     0.064 C 
ENDBRANCH  25  26
ENDBRANCH  20  25
BRANCH  24  32
ATOM     32 O25  MOL A   1      12.405 -22.149  -7.206  1.00  0.00    -0.493 OA
ATOM     33 C26  MOL A   1      12.428 -23.569  -7.110  1.00  0.00     0.078 C 
ENDBRANCH  24  32
ENDBRANCH  18  19
ENDBRANCH  17  18
ENDBRANCH  15  17
ENDBRANCH   8  14
ENDBRANCH   1   8
TORSDOF 10
ENDMDL
MODEL 116
REMARK VINA RESULT:    -7.641      7.175     11.995
REMARK INTER + INTRA:         -13.157
REMARK INTER:                 -11.462
REMARK INTRA:                  -1.695
REMARK UNBOUND:                -1.048
REMARK  10 active torsions:
REMARK  status: ('A' for Active; 'I' for Inactive)
REMARK   1   A    between atoms:  C27_1   and   C6_8  
REMARK   2   A    between atoms:  C6_8    and   C5_9  
REMARK   3   A    between atoms:  C5_9    and   C3_12 
REMARK   4   A    between atoms:  C6_8    and   N7_14 
REMARK   5   A    between atoms:  C8_15   and  C10_17 
REMARK   6   A    between atoms: C10_17   and  O11_18 
REMARK   7   A    between atoms: O11_18   and  C12_19 
REMARK   8   A    between atoms: C13_20   and  C14_25 
REMARK   9   A    between atoms: C14_25   and  N15_26 
REMARK   10  A    between atoms: C24_24   and  O25_32 
ROOT
ATOM      1 C27  MOL A   1      10.198 -18.022  -8.681  1.00  0.00    -0.024 A 
ATOM      2 C28  MOL A   1       9.723 -16.954  -7.899  1.00  0.00    -0.057 A 
ATOM      3 C29  MOL A   1       8.584 -16.242  -8.291  1.00  0.00    -0.061 A 
ATOM      4 C30  MOL A   1       7.910 -16.589  -9.464  1.00  0.00    -0.048 A 
ATOM      5 C31  MOL A   1       8.370 -17.652 -10.250  1.00  0.00     0.018 A 
ATOM      6 Br32 MOL A   1       7.433 -18.141 -11.845  1.00  0.00    -0.051 Br
ATOM      7 C33  MOL A   1       9.511 -18.362  -9.864  1.00  0.00    -0.043 A 
ENDROOT
BRANCH   1   8
ATOM      8  C6  MOL A   1      11.472 -18.739  -8.289  1.00  0.00     0.063 C 
BRANCH   8   9
ATOM      9  C5  MOL A   1      11.161 -19.845  -7.265  1.00  0.00     0.051 C 
BRANCH   9  12
ATOM     10  C1  MOL A   1      12.538 -23.434  -7.898  1.00  0.00     0.006 C 
ATOM     11  N2  MOL A   1      12.345 -22.099  -7.350  1.00  0.00    -0.359 N 
ATOM     12  C3  MOL A   1      11.342 -21.213  -7.858  1.00  0.00     0.222 C 
ATOM     13  O4  MOL A   1      10.599 -21.578  -8.810  1.00  0.00    -0.275 OA
ENDBRANCH   9  12
ENDBRANCH   8   9
BRANCH   8  14
ATOM     14  N7  MOL A   1      12.444 -17.787  -7.741  1.00  0.00    -0.346 N 
ATOM     15  C8  MOL A   1      13.808 -17.750  -8.166  1.00  0.00     0.258 C 
ATOM     16  O9  MOL A   1      14.225 -18.560  -9.036  1.00  0.00    -0.271 OA
BRANCH  15  17
ATOM     17 C10  MOL A   1      14.754 -16.738  -7.592  1.00  0.00     0.167 C 
BRANCH  17  18
ATOM     18 O11  MOL A   1      15.076 -17.065  -6.242  1.00  0.00    -0.480 OA
BRANCH  18  19
ATOM     19 C12  MOL A   1      16.351 -16.853  -5.712  1.00  0.00     0.166 A 
ATOM     20 C13  MOL A   1      17.439 -17.682  -6.070  1.00  0.00     0.012 A 
ATOM     21 C21  MOL A   1      18.719 -17.384  -5.575  1.00  0.00    -0.054 A 
ATOM     22 C22  MOL A   1      18.909 -16.313  -4.702  1.00  0.00    -0.058 A 
ATOM     23 C23  MOL A   1      17.826 -15.527  -4.310  1.00  0.00    -0.016 A 
ATOM     24 C24  MOL A   1      16.537 -15.794  -4.809  1.00  0.00     0.161 A 
BRANCH  20  25
ATOM     25 C14  MOL A   1      17.262 -18.883  -6.972  1.00  0.00     0.028 C 
BRANCH  25  26
ATOM     26 N15  MOL A   1      17.025 -20.100  -6.169  1.00  0.00    -0.287 NA
ATOM     27 C16  MOL A   1      17.409 -21.317  -6.904  1.00  0.00     0.064 C 
ATOM     28 C17  MOL A   1      15.979 -21.813  -6.978  1.00  0.00     0.272 C 
ATOM     29 F18  MOL A   1      15.752 -22.965  -6.245  1.00  0.00    -0.204 F 
ATOM     30 F19  MOL A   1      15.469 -21.857  -8.265  1.00  0.00    -0.204 F 
ATOM     31 C20  MOL A   1      15.621 -20.542  -6.232  1.00  0.00     0.064 C 
ENDBRANCH  25  26
ENDBRANCH  20  25
BRANCH  24  32
ATOM     32 O25  MOL A   1      15.421 -15.028  -4.439  1.00  0.00    -0.493 OA
ATOM     33 C26  MOL A   1      15.231 -14.452  -3.151  1.00  0.00     0.078 C 
ENDBRANCH  24  32
ENDBRANCH  18  19
ENDBRANCH  17  18
ENDBRANCH  15  17
ENDBRANCH   8  14
ENDBRANCH   1   8
TORSDOF 10
ENDMDL
MODEL 117
REMARK VINA RESULT:    -7.637      4.116      8.908
REMARK INTER + INTRA:         -13.149
REMARK INTER:                 -11.435
REMARK INTRA:                  -1.714
REMARK UNBOUND:                -1.048
REMARK  10 active torsions:
REMARK  status: ('A' for Active; 'I' for Inactive)
REMARK   1   A    between atoms:  C27_1   and   C6_8  
REMARK   2   A    between atoms:  C6_8    and   C5_9  
REMARK   3   A    between atoms:  C5_9    and   C3_12 
REMARK   4   A    between atoms:  C6_8    and   N7_14 
REMARK   5   A    between atoms:  C8_15   and  C10_17 
REMARK   6   A    between atoms: C10_17   and  O11_18 
REMARK   7   A    between atoms: O11_18   and  C12_19 
REMARK   8   A    between atoms: C13_20   and  C14_25 
REMARK   9   A    between atoms: C14_25   and  N15_26 
REMARK   10  A    between atoms: C24_24   and  O25_32 
ROOT
ATOM      1 C27  MOL A   1       6.285 -16.991  -8.686  1.00  0.00    -0.024 A 
ATOM      2 C28  MOL A   1       5.470 -16.165  -7.891  1.00  0.00    -0.057 A 
ATOM      3 C29  MOL A   1       4.526 -16.727  -7.024  1.00  0.00    -0.061 A 
ATOM      4 C30  MOL A   1       4.386 -18.115  -6.944  1.00  0.00    -0.048 A 
ATOM      5 C31  MOL A   1       5.193 -18.948  -7.728  1.00  0.00     0.018 A 
ATOM      6 Br32 MOL A   1       5.016 -20.849  -7.602  1.00  0.00    -0.051 Br
ATOM      7 C33  MOL A   1       6.134 -18.390  -8.599  1.00  0.00    -0.043 A 
ENDROOT
BRANCH   1   8
ATOM      8  C6  MOL A   1       7.253 -16.374  -9.673  1.00  0.00     0.063 C 
BRANCH   8   9
ATOM      9  C5  MOL A   1       6.619 -16.328 -11.075  1.00  0.00     0.051 C 
BRANCH   9  12
ATOM     10  C1  MOL A   1       3.490 -14.062 -11.576  1.00  0.00     0.006 C 
ATOM     11  N2  MOL A   1       4.346 -15.228 -11.412  1.00  0.00    -0.359 N 
ATOM     12  C3  MOL A   1       5.764 -15.106 -11.252  1.00  0.00     0.222 C 
ATOM     13  O4  MOL A   1       6.305 -13.967 -11.256  1.00  0.00    -0.275 OA
ENDBRANCH   9  12
ENDBRANCH   8   9
BRANCH   8  14
ATOM     14  N7  MOL A   1       8.507 -17.135  -9.699  1.00  0.00    -0.346 N 
ATOM     15  C8  MOL A   1       9.499 -17.018  -8.677  1.00  0.00     0.258 C 
ATOM     16  O9  MOL A   1       9.323 -16.232  -7.709  1.00  0.00    -0.271 OA
BRANCH  15  17
ATOM     17 C10  MOL A   1      10.752 -17.839  -8.738  1.00  0.00     0.167 C 
BRANCH  17  18
ATOM     18 O11  MOL A   1      10.840 -18.700  -7.605  1.00  0.00    -0.480 OA
BRANCH  18  19
ATOM     19 C12  MOL A   1      11.477 -19.942  -7.666  1.00  0.00     0.166 A 
ATOM     20 C13  MOL A   1      10.806 -21.085  -8.159  1.00  0.00     0.012 A 
ATOM     21 C21  MOL A   1      11.509 -22.295  -8.276  1.00  0.00    -0.054 A 
ATOM     22 C22  MOL A   1      12.839 -22.384  -7.866  1.00  0.00    -0.058 A 
ATOM     23 C23  MOL A   1      13.484 -21.268  -7.333  1.00  0.00    -0.016 A 
ATOM     24 C24  MOL A   1      12.807 -20.040  -7.224  1.00  0.00     0.161 A 
BRANCH  20  25
ATOM     25 C14  MOL A   1       9.349 -21.040  -8.563  1.00  0.00     0.028 C 
BRANCH  25  26
ATOM     26 N15  MOL A   1       9.110 -21.917  -9.728  1.00  0.00    -0.287 NA
ATOM     27 C16  MOL A   1       8.778 -21.139 -10.933  1.00  0.00     0.064 C 
ATOM     28 C17  MOL A   1       7.366 -21.687 -10.989  1.00  0.00     0.272 C 
ATOM     29 F18  MOL A   1       7.126 -22.494 -12.088  1.00  0.00    -0.204 F 
ATOM     30 F19  MOL A   1       6.388 -20.732 -10.770  1.00  0.00    -0.204 F 
ATOM     31 C20  MOL A   1       7.741 -22.462  -9.741  1.00  0.00     0.064 C 
ENDBRANCH  25  26
ENDBRANCH  20  25
BRANCH  24  32
ATOM     32 O25  MOL A   1      13.419 -18.895  -6.693  1.00  0.00    -0.493 OA
ATOM     33 C26  MOL A   1      14.555 -18.252  -7.261  1.00  0.00     0.078 C 
ENDBRANCH  24  32
ENDBRANCH  18  19
ENDBRANCH  17  18
ENDBRANCH  15  17
ENDBRANCH   8  14
ENDBRANCH   1   8
TORSDOF 10
ENDMDL
MODEL 118
REMARK VINA RESULT:    -7.632      5.642     10.511
REMARK INTER + INTRA:         -13.143
REMARK INTER:                 -11.828
REMARK INTRA:                  -1.314
REMARK UNBOUND:                -1.048
REMARK  10 active torsions:
REMARK  status: ('A' for Active; 'I' for Inactive)
REMARK   1   A    between atoms:  C27_1   and   C6_8  
REMARK   2   A    between atoms:  C6_8    and   C5_9  
REMARK   3   A    between atoms:  C5_9    and   C3_12 
REMARK   4   A    between atoms:  C6_8    and   N7_14 
REMARK   5   A    between atoms:  C8_15   and  C10_17 
REMARK   6   A    between atoms: C10_17   and  O11_18 
REMARK   7   A    between atoms: O11_18   and  C12_19 
REMARK   8   A    between atoms: C13_20   and  C14_25 
REMARK   9   A    between atoms: C14_25   and  N15_26 
REMARK   10  A    between atoms: C24_24   and  O25_32 
ROOT
ATOM      1 C27  MOL A   1       8.474 -17.713  -9.299  1.00  0.00    -0.024 A 
ATOM      2 C28  MOL A   1       8.196 -17.270 -10.605  1.00  0.00    -0.057 A 
ATOM      3 C29  MOL A   1       7.021 -16.561 -10.877  1.00  0.00    -0.061 A 
ATOM      4 C30  MOL A   1       6.113 -16.288  -9.851  1.00  0.00    -0.048 A 
ATOM      5 C31  MOL A   1       6.379 -16.720  -8.546  1.00  0.00     0.018 A 
ATOM      6 Br32 MOL A   1       5.146 -16.327  -7.137  1.00  0.00    -0.051 Br
ATOM      7 C33  MOL A   1       7.550 -17.434  -8.272  1.00  0.00    -0.043 A 
ENDROOT
BRANCH   1   8
ATOM      8  C6  MOL A   1       9.711 -18.542  -9.028  1.00  0.00     0.063 C 
BRANCH   8   9
ATOM      9  C5  MOL A   1       9.350 -19.757  -8.154  1.00  0.00     0.051 C 
BRANCH   9  12
ATOM     10  C1  MOL A   1       9.071 -22.467 -10.937  1.00  0.00     0.006 C 
ATOM     11  N2  MOL A   1       9.551 -21.361 -10.121  1.00  0.00    -0.359 N 
ATOM     12  C3  MOL A   1       8.823 -20.893  -8.981  1.00  0.00     0.222 C 
ATOM     13  O4  MOL A   1       7.732 -21.438  -8.660  1.00  0.00    -0.275 OA
ENDBRANCH   9  12
ENDBRANCH   8   9
BRANCH   8  14
ATOM     14  N7  MOL A   1      10.738 -17.723  -8.375  1.00  0.00    -0.346 N 
ATOM     15  C8  MOL A   1      12.110 -17.750  -8.773  1.00  0.00     0.258 C 
ATOM     16  O9  MOL A   1      12.485 -18.504  -9.711  1.00  0.00    -0.271 OA
BRANCH  15  17
ATOM     17 C10  MOL A   1      13.116 -16.873  -8.090  1.00  0.00     0.167 C 
BRANCH  17  18
ATOM     18 O11  MOL A   1      13.786 -17.592  -7.057  1.00  0.00    -0.480 OA
BRANCH  18  19
ATOM     19 C12  MOL A   1      15.180 -17.656  -6.983  1.00  0.00     0.166 A 
ATOM     20 C13  MOL A   1      15.927 -16.625  -6.368  1.00  0.00     0.012 A 
ATOM     21 C21  MOL A   1      17.319 -16.768  -6.244  1.00  0.00    -0.054 A 
ATOM     22 C22  MOL A   1      17.964 -17.889  -6.764  1.00  0.00    -0.058 A 
ATOM     23 C23  MOL A   1      17.231 -18.882  -7.415  1.00  0.00    -0.016 A 
ATOM     24 C24  MOL A   1      15.833 -18.770  -7.533  1.00  0.00     0.161 A 
BRANCH  20  25
ATOM     25 C14  MOL A   1      15.268 -15.370  -5.840  1.00  0.00     0.028 C 
BRANCH  25  26
ATOM     26 N15  MOL A   1      15.485 -15.247  -4.383  1.00  0.00    -0.287 NA
ATOM     27 C16  MOL A   1      14.645 -16.193  -3.629  1.00  0.00     0.064 C 
ATOM     28 C17  MOL A   1      13.834 -15.081  -2.995  1.00  0.00     0.272 C 
ATOM     29 F18  MOL A   1      14.015 -14.971  -1.627  1.00  0.00    -0.204 F 
ATOM     30 F19  MOL A   1      12.505 -15.065  -3.388  1.00  0.00    -0.204 F 
ATOM     31 C20  MOL A   1      14.710 -14.140  -3.798  1.00  0.00     0.064 C 
ENDBRANCH  25  26
ENDBRANCH  20  25
BRANCH  24  32
ATOM     32 O25  MOL A   1      15.060 -19.745  -8.181  1.00  0.00    -0.493 OA
ATOM     33 C26  MOL A   1      15.501 -21.069  -8.460  1.00  0.00     0.078 C 
ENDBRANCH  24  32
ENDBRANCH  18  19
ENDBRANCH  17  18
ENDBRANCH  15  17
ENDBRANCH   8  14
ENDBRANCH   1   8
TORSDOF 10
ENDMDL
MODEL 119
REMARK VINA RESULT:    -7.627      6.716     11.487
REMARK INTER + INTRA:         -13.135
REMARK INTER:                 -11.520
REMARK INTRA:                  -1.615
REMARK UNBOUND:                -1.048
REMARK  10 active torsions:
REMARK  status: ('A' for Active; 'I' for Inactive)
REMARK   1   A    between atoms:  C27_1   and   C6_8  
REMARK   2   A    between atoms:  C6_8    and   C5_9  
REMARK   3   A    between atoms:  C5_9    and   C3_12 
REMARK   4   A    between atoms:  C6_8    and   N7_14 
REMARK   5   A    between atoms:  C8_15   and  C10_17 
REMARK   6   A    between atoms: C10_17   and  O11_18 
REMARK   7   A    between atoms: O11_18   and  C12_19 
REMARK   8   A    between atoms: C13_20   and  C14_25 
REMARK   9   A    between atoms: C14_25   and  N15_26 
REMARK   10  A    between atoms: C24_24   and  O25_32 
ROOT
ATOM      1 C27  MOL A   1       9.920 -17.788  -8.642  1.00  0.00    -0.024 A 
ATOM      2 C28  MOL A   1       9.350 -16.701  -7.954  1.00  0.00    -0.057 A 
ATOM      3 C29  MOL A   1       8.242 -16.032  -8.483  1.00  0.00    -0.061 A 
ATOM      4 C30  MOL A   1       7.692 -16.439  -9.702  1.00  0.00    -0.048 A 
ATOM      5 C31  MOL A   1       8.247 -17.521 -10.395  1.00  0.00     0.018 A 
ATOM      6 Br32 MOL A   1       7.481 -18.091 -12.052  1.00  0.00    -0.051 Br
ATOM      7 C33  MOL A   1       9.359 -18.189  -9.871  1.00  0.00    -0.043 A 
ENDROOT
BRANCH   1   8
ATOM      8  C6  MOL A   1      11.163 -18.460  -8.099  1.00  0.00     0.063 C 
BRANCH   8   9
ATOM      9  C5  MOL A   1      10.770 -19.646  -7.200  1.00  0.00     0.051 C 
BRANCH   9  12
ATOM     10  C1  MOL A   1      12.586 -23.025  -7.879  1.00  0.00     0.006 C 
ATOM     11  N2  MOL A   1      12.212 -21.744  -7.298  1.00  0.00    -0.359 N 
ATOM     12  C3  MOL A   1      11.138 -20.959  -7.828  1.00  0.00     0.222 C 
ATOM     13  O4  MOL A   1      10.490 -21.369  -8.830  1.00  0.00    -0.275 OA
ENDBRANCH   9  12
ENDBRANCH   8   9
BRANCH   8  14
ATOM     14  N7  MOL A   1      11.978 -17.495  -7.354  1.00  0.00    -0.346 N 
ATOM     15  C8  MOL A   1      13.375 -17.687  -7.120  1.00  0.00     0.258 C 
ATOM     16  O9  MOL A   1      13.955 -18.719  -7.550  1.00  0.00    -0.271 OA
BRANCH  15  17
ATOM     17 C10  MOL A   1      14.168 -16.656  -6.375  1.00  0.00     0.167 C 
BRANCH  17  18
ATOM     18 O11  MOL A   1      14.906 -17.263  -5.317  1.00  0.00    -0.480 OA
BRANCH  18  19
ATOM     19 C12  MOL A   1      16.150 -16.775  -4.906  1.00  0.00     0.166 A 
ATOM     20 C13  MOL A   1      17.344 -17.197  -5.533  1.00  0.00     0.012 A 
ATOM     21 C21  MOL A   1      18.565 -16.622  -5.141  1.00  0.00    -0.054 A 
ATOM     22 C22  MOL A   1      18.605 -15.680  -4.113  1.00  0.00    -0.058 A 
ATOM     23 C23  MOL A   1      17.431 -15.302  -3.462  1.00  0.00    -0.016 A 
ATOM     24 C24  MOL A   1      16.195 -15.850  -3.850  1.00  0.00     0.161 A 
BRANCH  20  25
ATOM     25 C14  MOL A   1      17.346 -18.255  -6.615  1.00  0.00     0.028 C 
BRANCH  25  26
ATOM     26 N15  MOL A   1      17.955 -17.726  -7.852  1.00  0.00    -0.287 NA
ATOM     27 C16  MOL A   1      16.995 -16.925  -8.630  1.00  0.00     0.064 C 
ATOM     28 C17  MOL A   1      16.982 -17.918  -9.775  1.00  0.00     0.272 C 
ATOM     29 F18  MOL A   1      17.532 -17.425 -10.945  1.00  0.00    -0.204 F 
ATOM     30 F19  MOL A   1      15.761 -18.550  -9.952  1.00  0.00    -0.204 F 
ATOM     31 C20  MOL A   1      17.959 -18.721  -8.939  1.00  0.00     0.064 C 
ENDBRANCH  25  26
ENDBRANCH  20  25
BRANCH  24  32
ATOM     32 O25  MOL A   1      14.992 -15.497  -3.221  1.00  0.00    -0.493 OA
ATOM     33 C26  MOL A   1      14.640 -14.171  -2.842  1.00  0.00     0.078 C 
ENDBRANCH  24  32
ENDBRANCH  18  19
ENDBRANCH  17  18
ENDBRANCH  15  17
ENDBRANCH   8  14
ENDBRANCH   1   8
TORSDOF 10
ENDMDL
MODEL 120
REMARK VINA RESULT:    -7.626      5.089      9.840
REMARK INTER + INTRA:         -13.132
REMARK INTER:                 -11.728
REMARK INTRA:                  -1.403
REMARK UNBOUND:                -1.048
REMARK  10 active torsions:
REMARK  status: ('A' for Active; 'I' for Inactive)
REMARK   1   A    between atoms:  C27_1   and   C6_8  
REMARK   2   A    between atoms:  C6_8    and   C5_9  
REMARK   3   A    between atoms:  C5_9    and   C3_12 
REMARK   4   A    between atoms:  C6_8    and   N7_14 
REMARK   5   A    between atoms:  C8_15   and  C10_17 
REMARK   6   A    between atoms: C10_17   and  O11_18 
REMARK   7   A    between atoms: O11_18   and  C12_19 
REMARK   8   A    between atoms: C13_20   and  C14_25 
REMARK   9   A    between atoms: C14_25   and  N15_26 
REMARK   10  A    between atoms: C24_24   and  O25_32 
ROOT
ATOM      1 C27  MOL A   1       8.233 -20.172  -9.810  1.00  0.00    -0.024 A 
ATOM      2 C28  MOL A   1       9.014 -21.183 -10.399  1.00  0.00    -0.057 A 
ATOM      3 C29  MOL A   1       8.425 -22.385 -10.808  1.00  0.00    -0.061 A 
ATOM      4 C30  MOL A   1       7.054 -22.589 -10.632  1.00  0.00    -0.048 A 
ATOM      5 C31  MOL A   1       6.265 -21.591 -10.050  1.00  0.00     0.018 A 
ATOM      6 Br32 MOL A   1       4.384 -21.863  -9.830  1.00  0.00    -0.051 Br
ATOM      7 C33  MOL A   1       6.851 -20.390  -9.636  1.00  0.00    -0.043 A 
ENDROOT
BRANCH   1   8
ATOM      8  C6  MOL A   1       8.889 -18.906  -9.305  1.00  0.00     0.063 C 
BRANCH   8   9
ATOM      9  C5  MOL A   1       8.090 -17.676  -9.771  1.00  0.00     0.051 C 
BRANCH   9  12
ATOM     10  C1  MOL A   1       5.573 -16.317  -7.127  1.00  0.00     0.006 C 
ATOM     11  N2  MOL A   1       6.145 -17.037  -8.255  1.00  0.00    -0.359 N 
ATOM     12  C3  MOL A   1       7.527 -16.911  -8.608  1.00  0.00     0.222 C 
ATOM     13  O4  MOL A   1       8.284 -16.157  -7.938  1.00  0.00    -0.275 OA
ENDBRANCH   9  12
ENDBRANCH   8   9
BRANCH   8  14
ATOM     14  N7  MOL A   1      10.276 -18.829  -9.776  1.00  0.00    -0.346 N 
ATOM     15  C8  MOL A   1      11.358 -18.446  -8.924  1.00  0.00     0.258 C 
ATOM     16  O9  MOL A   1      11.143 -18.147  -7.720  1.00  0.00    -0.271 OA
BRANCH  15  17
ATOM     17 C10  MOL A   1      12.761 -18.410  -9.451  1.00  0.00     0.167 C 
BRANCH  17  18
ATOM     18 O11  MOL A   1      13.695 -18.643  -8.399  1.00  0.00    -0.480 OA
BRANCH  18  19
ATOM     19 C12  MOL A   1      15.059 -18.379  -8.547  1.00  0.00     0.166 A 
ATOM     20 C13  MOL A   1      15.571 -17.070  -8.395  1.00  0.00     0.012 A 
ATOM     21 C21  MOL A   1      16.959 -16.863  -8.473  1.00  0.00    -0.054 A 
ATOM     22 C22  MOL A   1      17.819 -17.927  -8.747  1.00  0.00    -0.058 A 
ATOM     23 C23  MOL A   1      17.306 -19.209  -8.947  1.00  0.00    -0.016 A 
ATOM     24 C24  MOL A   1      15.922 -19.444  -8.853  1.00  0.00     0.161 A 
BRANCH  20  25
ATOM     25 C14  MOL A   1      14.665 -15.883  -8.150  1.00  0.00     0.028 C 
BRANCH  25  26
ATOM     26 N15  MOL A   1      14.809 -15.402  -6.761  1.00  0.00    -0.287 NA
ATOM     27 C16  MOL A   1      14.118 -16.287  -5.807  1.00  0.00     0.064 C 
ATOM     28 C17  MOL A   1      13.107 -15.220  -5.437  1.00  0.00     0.272 C 
ATOM     29 F18  MOL A   1      13.220 -14.778  -4.130  1.00  0.00    -0.204 F 
ATOM     30 F19  MOL A   1      11.810 -15.524  -5.816  1.00  0.00    -0.204 F 
ATOM     31 C20  MOL A   1      13.837 -14.344  -6.436  1.00  0.00     0.064 C 
ENDBRANCH  25  26
ENDBRANCH  20  25
BRANCH  24  32
ATOM     32 O25  MOL A   1      15.367 -20.717  -9.047  1.00  0.00    -0.493 OA
ATOM     33 C26  MOL A   1      15.785 -21.892  -8.361  1.00  0.00     0.078 C 
ENDBRANCH  24  32
ENDBRANCH  18  19
ENDBRANCH  17  18
ENDBRANCH  15  17
ENDBRANCH   8  14
ENDBRANCH   1   8
TORSDOF 10
ENDMDL
MODEL 121
REMARK VINA RESULT:    -7.624      5.523      9.611
REMARK INTER + INTRA:         -13.129
REMARK INTER:                 -11.938
REMARK INTRA:                  -1.192
REMARK UNBOUND:                -1.048
REMARK  10 active torsions:
REMARK  status: ('A' for Active; 'I' for Inactive)
REMARK   1   A    between atoms:  C27_1   and   C6_8  
REMARK   2   A    between atoms:  C6_8    and   C5_9  
REMARK   3   A    between atoms:  C5_9    and   C3_12 
REMARK   4   A    between atoms:  C6_8    and   N7_14 
REMARK   5   A    between atoms:  C8_15   and  C10_17 
REMARK   6   A    between atoms: C10_17   and  O11_18 
REMARK   7   A    between atoms: O11_18   and  C12_19 
REMARK   8   A    between atoms: C13_20   and  C14_25 
REMARK   9   A    between atoms: C14_25   and  N15_26 
REMARK   10  A    between atoms: C24_24   and  O25_32 
ROOT
ATOM      1 C27  MOL A   1       6.706 -18.273  -8.394  1.00  0.00    -0.024 A 
ATOM      2 C28  MOL A   1       6.096 -17.117  -7.875  1.00  0.00    -0.057 A 
ATOM      3 C29  MOL A   1       4.849 -17.196  -7.246  1.00  0.00    -0.061 A 
ATOM      4 C30  MOL A   1       4.199 -18.427  -7.131  1.00  0.00    -0.048 A 
ATOM      5 C31  MOL A   1       4.796 -19.586  -7.640  1.00  0.00     0.018 A 
ATOM      6 Br32 MOL A   1       3.915 -21.275  -7.461  1.00  0.00    -0.051 Br
ATOM      7 C33  MOL A   1       6.040 -19.510  -8.273  1.00  0.00    -0.043 A 
ENDROOT
BRANCH   1   8
ATOM      8  C6  MOL A   1       8.021 -18.168  -9.136  1.00  0.00     0.063 C 
BRANCH   8   9
ATOM      9  C5  MOL A   1       7.856 -18.684 -10.577  1.00  0.00     0.051 C 
BRANCH   9  12
ATOM     10  C1  MOL A   1       9.251 -22.302 -10.946  1.00  0.00     0.006 C 
ATOM     11  N2  MOL A   1       8.370 -21.177 -10.666  1.00  0.00    -0.359 N 
ATOM     12  C3  MOL A   1       8.791 -19.823 -10.864  1.00  0.00     0.222 C 
ATOM     13  O4  MOL A   1       9.954 -19.577 -11.286  1.00  0.00    -0.275 OA
ENDBRANCH   9  12
ENDBRANCH   8   9
BRANCH   8  14
ATOM     14  N7  MOL A   1       9.063 -18.924  -8.433  1.00  0.00    -0.346 N 
ATOM     15  C8  MOL A   1      10.237 -18.305  -7.903  1.00  0.00     0.258 C 
ATOM     16  O9  MOL A   1      10.417 -17.066  -8.037  1.00  0.00    -0.271 OA
BRANCH  15  17
ATOM     17 C10  MOL A   1      11.259 -19.121  -7.169  1.00  0.00     0.167 C 
BRANCH  17  18
ATOM     18 O11  MOL A   1      12.315 -19.503  -8.047  1.00  0.00    -0.480 OA
BRANCH  18  19
ATOM     19 C12  MOL A   1      13.565 -19.909  -7.570  1.00  0.00     0.166 A 
ATOM     20 C13  MOL A   1      14.599 -18.973  -7.339  1.00  0.00     0.012 A 
ATOM     21 C21  MOL A   1      15.812 -19.415  -6.785  1.00  0.00    -0.054 A 
ATOM     22 C22  MOL A   1      16.014 -20.768  -6.510  1.00  0.00    -0.058 A 
ATOM     23 C23  MOL A   1      15.010 -21.697  -6.786  1.00  0.00    -0.016 A 
ATOM     24 C24  MOL A   1      13.779 -21.275  -7.322  1.00  0.00     0.161 A 
BRANCH  20  25
ATOM     25 C14  MOL A   1      14.436 -17.507  -7.675  1.00  0.00     0.028 C 
BRANCH  25  26
ATOM     26 N15  MOL A   1      14.092 -16.736  -6.462  1.00  0.00    -0.287 NA
ATOM     27 C16  MOL A   1      13.111 -15.677  -6.754  1.00  0.00     0.064 C 
ATOM     28 C17  MOL A   1      14.103 -14.573  -6.446  1.00  0.00     0.272 C 
ATOM     29 F18  MOL A   1      13.778 -13.831  -5.324  1.00  0.00    -0.204 F 
ATOM     30 F19  MOL A   1      14.442 -13.804  -7.548  1.00  0.00    -0.204 F 
ATOM     31 C20  MOL A   1      15.087 -15.692  -6.167  1.00  0.00     0.064 C 
ENDBRANCH  25  26
ENDBRANCH  20  25
BRANCH  24  32
ATOM     32 O25  MOL A   1      12.745 -22.177  -7.615  1.00  0.00    -0.493 OA
ATOM     33 C26  MOL A   1      12.844 -23.590  -7.471  1.00  0.00     0.078 C 
ENDBRANCH  24  32
ENDBRANCH  18  19
ENDBRANCH  17  18
ENDBRANCH  15  17
ENDBRANCH   8  14
ENDBRANCH   1   8
TORSDOF 10
ENDMDL
MODEL 122
REMARK VINA RESULT:    -7.606      3.915      8.378
REMARK INTER + INTRA:         -13.101
REMARK INTER:                 -12.259
REMARK INTRA:                  -0.843
REMARK UNBOUND:                -1.048
REMARK  10 active torsions:
REMARK  status: ('A' for Active; 'I' for Inactive)
REMARK   1   A    between atoms:  C27_1   and   C6_8  
REMARK   2   A    between atoms:  C6_8    and   C5_9  
REMARK   3   A    between atoms:  C5_9    and   C3_12 
REMARK   4   A    between atoms:  C6_8    and   N7_14 
REMARK   5   A    between atoms:  C8_15   and  C10_17 
REMARK   6   A    between atoms: C10_17   and  O11_18 
REMARK   7   A    between atoms: O11_18   and  C12_19 
REMARK   8   A    between atoms: C13_20   and  C14_25 
REMARK   9   A    between atoms: C14_25   and  N15_26 
REMARK   10  A    between atoms: C24_24   and  O25_32 
ROOT
ATOM      1 C27  MOL A   1       5.096 -15.605  -9.347  1.00  0.00    -0.024 A 
ATOM      2 C28  MOL A   1       5.615 -16.093  -8.134  1.00  0.00    -0.057 A 
ATOM      3 C29  MOL A   1       4.819 -16.120  -6.984  1.00  0.00    -0.061 A 
ATOM      4 C30  MOL A   1       3.500 -15.661  -7.033  1.00  0.00    -0.048 A 
ATOM      5 C31  MOL A   1       2.970 -15.176  -8.235  1.00  0.00     0.018 A 
ATOM      6 Br32 MOL A   1       1.158 -14.569  -8.307  1.00  0.00    -0.051 Br
ATOM      7 C33  MOL A   1       3.765 -15.143  -9.385  1.00  0.00    -0.043 A 
ENDROOT
BRANCH   1   8
ATOM      8  C6  MOL A   1       5.986 -15.511 -10.568  1.00  0.00     0.063 C 
BRANCH   8   9
ATOM      9  C5  MOL A   1       5.147 -15.144 -11.805  1.00  0.00     0.051 C 
BRANCH   9  12
ATOM     10  C1  MOL A   1       3.755 -11.625 -12.730  1.00  0.00     0.006 C 
ATOM     11  N2  MOL A   1       3.880 -13.064 -12.553  1.00  0.00    -0.359 N 
ATOM     12  C3  MOL A   1       5.053 -13.656 -11.984  1.00  0.00     0.222 C 
ATOM     13  O4  MOL A   1       6.018 -12.927 -11.625  1.00  0.00    -0.275 OA
ENDBRANCH   9  12
ENDBRANCH   8   9
BRANCH   8  14
ATOM     14  N7  MOL A   1       6.692 -16.780 -10.781  1.00  0.00    -0.346 N 
ATOM     15  C8  MOL A   1       7.935 -17.084 -10.146  1.00  0.00     0.258 C 
ATOM     16  O9  MOL A   1       8.476 -16.248  -9.375  1.00  0.00    -0.271 OA
BRANCH  15  17
ATOM     17 C10  MOL A   1       8.601 -18.407 -10.378  1.00  0.00     0.167 C 
BRANCH  17  18
ATOM     18 O11  MOL A   1       8.307 -19.308  -9.312  1.00  0.00    -0.480 OA
BRANCH  18  19
ATOM     19 C12  MOL A   1       8.499 -20.687  -9.433  1.00  0.00     0.166 A 
ATOM     20 C13  MOL A   1       7.423 -21.551  -9.741  1.00  0.00     0.012 A 
ATOM     21 C21  MOL A   1       7.676 -22.919  -9.930  1.00  0.00    -0.054 A 
ATOM     22 C22  MOL A   1       8.964 -23.431  -9.770  1.00  0.00    -0.058 A 
ATOM     23 C23  MOL A   1      10.015 -22.584  -9.417  1.00  0.00    -0.016 A 
ATOM     24 C24  MOL A   1       9.790 -21.206  -9.242  1.00  0.00     0.161 A 
BRANCH  20  25
ATOM     25 C14  MOL A   1       6.005 -21.041  -9.870  1.00  0.00     0.028 C 
BRANCH  25  26
ATOM     26 N15  MOL A   1       5.086 -21.861  -9.053  1.00  0.00    -0.287 NA
ATOM     27 C16  MOL A   1       3.697 -21.380  -9.153  1.00  0.00     0.064 C 
ATOM     28 C17  MOL A   1       3.660 -20.963  -7.696  1.00  0.00     0.272 C 
ATOM     29 F18  MOL A   1       2.786 -21.712  -6.926  1.00  0.00    -0.204 F 
ATOM     30 F19  MOL A   1       3.540 -19.596  -7.510  1.00  0.00    -0.204 F 
ATOM     31 C20  MOL A   1       5.092 -21.457  -7.636  1.00  0.00     0.064 C 
ENDBRANCH  25  26
ENDBRANCH  20  25
BRANCH  24  32
ATOM     32 O25  MOL A   1      10.819 -20.322  -8.886  1.00  0.00    -0.493 OA
ATOM     33 C26  MOL A   1      11.893 -20.647  -8.009  1.00  0.00     0.078 C 
ENDBRANCH  24  32
ENDBRANCH  18  19
ENDBRANCH  17  18
ENDBRANCH  15  17
ENDBRANCH   8  14
ENDBRANCH   1   8
TORSDOF 10
ENDMDL
MODEL 123
REMARK VINA RESULT:    -7.602      5.968     10.441
REMARK INTER + INTRA:         -13.095
REMARK INTER:                 -11.783
REMARK INTRA:                  -1.312
REMARK UNBOUND:                -1.048
REMARK  10 active torsions:
REMARK  status: ('A' for Active; 'I' for Inactive)
REMARK   1   A    between atoms:  C27_1   and   C6_8  
REMARK   2   A    between atoms:  C6_8    and   C5_9  
REMARK   3   A    between atoms:  C5_9    and   C3_12 
REMARK   4   A    between atoms:  C6_8    and   N7_14 
REMARK   5   A    between atoms:  C8_15   and  C10_17 
REMARK   6   A    between atoms: C10_17   and  O11_18 
REMARK   7   A    between atoms: O11_18   and  C12_19 
REMARK   8   A    between atoms: C13_20   and  C14_25 
REMARK   9   A    between atoms: C14_25   and  N15_26 
REMARK   10  A    between atoms: C24_24   and  O25_32 
ROOT
ATOM      1 C27  MOL A   1       7.478 -17.740 -10.355  1.00  0.00    -0.024 A 
ATOM      2 C28  MOL A   1       7.840 -18.349 -11.570  1.00  0.00    -0.057 A 
ATOM      3 C29  MOL A   1       7.449 -17.783 -12.789  1.00  0.00    -0.061 A 
ATOM      4 C30  MOL A   1       6.694 -16.607 -12.806  1.00  0.00    -0.048 A 
ATOM      5 C31  MOL A   1       6.330 -15.990 -11.604  1.00  0.00     0.018 A 
ATOM      6 Br32 MOL A   1       5.315 -14.368 -11.629  1.00  0.00    -0.051 Br
ATOM      7 C33  MOL A   1       6.715 -16.555 -10.384  1.00  0.00    -0.043 A 
ENDROOT
BRANCH   1   8
ATOM      8  C6  MOL A   1       7.843 -18.397  -9.041  1.00  0.00     0.063 C 
BRANCH   8   9
ATOM      9  C5  MOL A   1       6.602 -18.487  -8.134  1.00  0.00     0.051 C 
BRANCH   9  12
ATOM     10  C1  MOL A   1       4.344 -21.546  -7.289  1.00  0.00     0.006 C 
ATOM     11  N2  MOL A   1       4.840 -20.184  -7.428  1.00  0.00    -0.359 N 
ATOM     12  C3  MOL A   1       6.124 -19.903  -7.995  1.00  0.00     0.222 C 
ATOM     13  O4  MOL A   1       6.863 -20.848  -8.387  1.00  0.00    -0.275 OA
ENDBRANCH   9  12
ENDBRANCH   8   9
BRANCH   8  14
ATOM     14  N7  MOL A   1       8.914 -17.646  -8.378  1.00  0.00    -0.346 N 
ATOM     15  C8  MOL A   1      10.296 -17.970  -8.542  1.00  0.00     0.258 C 
ATOM     16  O9  MOL A   1      10.639 -18.939  -9.270  1.00  0.00    -0.271 OA
BRANCH  15  17
ATOM     17 C10  MOL A   1      11.353 -17.153  -7.861  1.00  0.00     0.167 C 
BRANCH  17  18
ATOM     18 O11  MOL A   1      12.630 -17.406  -8.441  1.00  0.00    -0.480 OA
BRANCH  18  19
ATOM     19 C12  MOL A   1      13.751 -17.708  -7.663  1.00  0.00     0.166 A 
ATOM     20 C13  MOL A   1      14.209 -19.038  -7.526  1.00  0.00     0.012 A 
ATOM     21 C21  MOL A   1      15.385 -19.287  -6.800  1.00  0.00    -0.054 A 
ATOM     22 C22  MOL A   1      16.069 -18.241  -6.180  1.00  0.00    -0.058 A 
ATOM     23 C23  MOL A   1      15.588 -16.935  -6.275  1.00  0.00    -0.016 A 
ATOM     24 C24  MOL A   1      14.423 -16.659  -7.014  1.00  0.00     0.161 A 
BRANCH  20  25
ATOM     25 C14  MOL A   1      13.465 -20.204  -8.139  1.00  0.00     0.028 C 
BRANCH  25  26
ATOM     26 N15  MOL A   1      13.525 -21.381  -7.248  1.00  0.00    -0.287 NA
ATOM     27 C16  MOL A   1      13.738 -22.625  -8.007  1.00  0.00     0.064 C 
ATOM     28 C17  MOL A   1      12.371 -23.168  -7.640  1.00  0.00     0.272 C 
ATOM     29 F18  MOL A   1      12.418 -24.284  -6.822  1.00  0.00    -0.204 F 
ATOM     30 F19  MOL A   1      11.515 -23.301  -8.721  1.00  0.00    -0.204 F 
ATOM     31 C20  MOL A   1      12.185 -21.869  -6.881  1.00  0.00     0.064 C 
ENDBRANCH  25  26
ENDBRANCH  20  25
BRANCH  24  32
ATOM     32 O25  MOL A   1      13.906 -15.361  -7.133  1.00  0.00    -0.493 OA
ATOM     33 C26  MOL A   1      14.491 -14.330  -7.922  1.00  0.00     0.078 C 
ENDBRANCH  24  32
ENDBRANCH  18  19
ENDBRANCH  17  18
ENDBRANCH  15  17
ENDBRANCH   8  14
ENDBRANCH   1   8
TORSDOF 10
ENDMDL
MODEL 124
REMARK VINA RESULT:    -7.602      5.857     10.468
REMARK INTER + INTRA:         -13.095
REMARK INTER:                 -11.954
REMARK INTRA:                  -1.140
REMARK UNBOUND:                -1.048
REMARK  10 active torsions:
REMARK  status: ('A' for Active; 'I' for Inactive)
REMARK   1   A    between atoms:  C27_1   and   C6_8  
REMARK   2   A    between atoms:  C6_8    and   C5_9  
REMARK   3   A    between atoms:  C5_9    and   C3_12 
REMARK   4   A    between atoms:  C6_8    and   N7_14 
REMARK   5   A    between atoms:  C8_15   and  C10_17 
REMARK   6   A    between atoms: C10_17   and  O11_18 
REMARK   7   A    between atoms: O11_18   and  C12_19 
REMARK   8   A    between atoms: C13_20   and  C14_25 
REMARK   9   A    between atoms: C14_25   and  N15_26 
REMARK   10  A    between atoms: C24_24   and  O25_32 
ROOT
ATOM      1 C27  MOL A   1       8.099 -17.506  -9.324  1.00  0.00    -0.024 A 
ATOM      2 C28  MOL A   1       7.841 -16.880 -10.557  1.00  0.00    -0.057 A 
ATOM      3 C29  MOL A   1       6.699 -16.089 -10.724  1.00  0.00    -0.061 A 
ATOM      4 C30  MOL A   1       5.805 -15.916  -9.664  1.00  0.00    -0.048 A 
ATOM      5 C31  MOL A   1       6.051 -16.531  -8.431  1.00  0.00     0.018 A 
ATOM      6 Br32 MOL A   1       4.838 -16.276  -6.974  1.00  0.00    -0.051 Br
ATOM      7 C33  MOL A   1       7.189 -17.327  -8.263  1.00  0.00    -0.043 A 
ENDROOT
BRANCH   1   8
ATOM      8  C6  MOL A   1       9.297 -18.418  -9.174  1.00  0.00     0.063 C 
BRANCH   8   9
ATOM      9  C5  MOL A   1       8.962 -19.577  -8.218  1.00  0.00     0.051 C 
BRANCH   9  12
ATOM     10  C1  MOL A   1       7.715 -22.788 -10.035  1.00  0.00     0.006 C 
ATOM     11  N2  MOL A   1       7.740 -21.513  -9.334  1.00  0.00    -0.359 N 
ATOM     12  C3  MOL A   1       8.969 -20.898  -8.930  1.00  0.00     0.222 C 
ATOM     13  O4  MOL A   1      10.069 -21.464  -9.174  1.00  0.00    -0.275 OA
ENDBRANCH   9  12
ENDBRANCH   8   9
BRANCH   8  14
ATOM     14  N7  MOL A   1      10.454 -17.661  -8.683  1.00  0.00    -0.346 N 
ATOM     15  C8  MOL A   1      11.783 -17.897  -9.151  1.00  0.00     0.258 C 
ATOM     16  O9  MOL A   1      12.004 -18.790 -10.012  1.00  0.00    -0.271 OA
BRANCH  15  17
ATOM     17 C10  MOL A   1      12.926 -17.076  -8.634  1.00  0.00     0.167 C 
BRANCH  17  18
ATOM     18 O11  MOL A   1      13.648 -17.798  -7.639  1.00  0.00    -0.480 OA
BRANCH  18  19
ATOM     19 C12  MOL A   1      15.045 -17.800  -7.592  1.00  0.00     0.166 A 
ATOM     20 C13  MOL A   1      15.758 -16.739  -6.990  1.00  0.00     0.012 A 
ATOM     21 C21  MOL A   1      17.158 -16.820  -6.895  1.00  0.00    -0.054 A 
ATOM     22 C22  MOL A   1      17.841 -17.912  -7.431  1.00  0.00    -0.058 A 
ATOM     23 C23  MOL A   1      17.139 -18.934  -8.069  1.00  0.00    -0.016 A 
ATOM     24 C24  MOL A   1      15.735 -18.884  -8.159  1.00  0.00     0.161 A 
BRANCH  20  25
ATOM     25 C14  MOL A   1      15.056 -15.515  -6.445  1.00  0.00     0.028 C 
BRANCH  25  26
ATOM     26 N15  MOL A   1      14.206 -15.878  -5.293  1.00  0.00    -0.287 NA
ATOM     27 C16  MOL A   1      13.843 -14.695  -4.494  1.00  0.00     0.064 C 
ATOM     28 C17  MOL A   1      14.636 -15.172  -3.293  1.00  0.00     0.272 C 
ATOM     29 F18  MOL A   1      13.849 -15.495  -2.201  1.00  0.00    -0.204 F 
ATOM     30 F19  MOL A   1      15.720 -14.367  -2.985  1.00  0.00    -0.204 F 
ATOM     31 C20  MOL A   1      14.998 -16.368  -4.151  1.00  0.00     0.064 C 
ENDBRANCH  25  26
ENDBRANCH  20  25
BRANCH  24  32
ATOM     32 O25  MOL A   1      14.993 -19.890  -8.794  1.00  0.00    -0.493 OA
ATOM     33 C26  MOL A   1      15.199 -21.286  -8.602  1.00  0.00     0.078 C 
ENDBRANCH  24  32
ENDBRANCH  18  19
ENDBRANCH  17  18
ENDBRANCH  15  17
ENDBRANCH   8  14
ENDBRANCH   1   8
TORSDOF 10
ENDMDL
MODEL 125
REMARK VINA RESULT:    -7.601      6.610     11.328
REMARK INTER + INTRA:         -13.094
REMARK INTER:                 -11.686
REMARK INTRA:                  -1.407
REMARK UNBOUND:                -1.048
REMARK  10 active torsions:
REMARK  status: ('A' for Active; 'I' for Inactive)
REMARK   1   A    between atoms:  C27_1   and   C6_8  
REMARK   2   A    between atoms:  C6_8    and   C5_9  
REMARK   3   A    between atoms:  C5_9    and   C3_12 
REMARK   4   A    between atoms:  C6_8    and   N7_14 
REMARK   5   A    between atoms:  C8_15   and  C10_17 
REMARK   6   A    between atoms: C10_17   and  O11_18 
REMARK   7   A    between atoms: O11_18   and  C12_19 
REMARK   8   A    between atoms: C13_20   and  C14_25 
REMARK   9   A    between atoms: C14_25   and  N15_26 
REMARK   10  A    between atoms: C24_24   and  O25_32 
ROOT
ATOM      1 C27  MOL A   1       9.972 -18.164  -8.713  1.00  0.00    -0.024 A 
ATOM      2 C28  MOL A   1       9.552 -17.045  -7.970  1.00  0.00    -0.057 A 
ATOM      3 C29  MOL A   1       8.520 -16.228  -8.443  1.00  0.00    -0.061 A 
ATOM      4 C30  MOL A   1       7.897 -16.518  -9.660  1.00  0.00    -0.048 A 
ATOM      5 C31  MOL A   1       8.302 -17.630 -10.407  1.00  0.00     0.018 A 
ATOM      6 Br32 MOL A   1       7.434 -18.039 -12.063  1.00  0.00    -0.051 Br
ATOM      7 C33  MOL A   1       9.338 -18.446  -9.940  1.00  0.00    -0.043 A 
ENDROOT
BRANCH   1   8
ATOM      8  C6  MOL A   1      11.137 -19.000  -8.231  1.00  0.00     0.063 C 
BRANCH   8   9
ATOM      9  C5  MOL A   1      10.620 -20.245  -7.487  1.00  0.00     0.051 C 
BRANCH   9  12
ATOM     10  C1  MOL A   1      12.335 -23.607  -8.450  1.00  0.00     0.006 C 
ATOM     11  N2  MOL A   1      11.994 -22.372  -7.759  1.00  0.00    -0.359 N 
ATOM     12  C3  MOL A   1      10.955 -21.507  -8.228  1.00  0.00     0.222 C 
ATOM     13  O4  MOL A   1      10.308 -21.803  -9.270  1.00  0.00    -0.275 OA
ENDBRANCH   9  12
ENDBRANCH   8   9
BRANCH   8  14
ATOM     14  N7  MOL A   1      12.008 -18.203  -7.360  1.00  0.00    -0.346 N 
ATOM     15  C8  MOL A   1      13.222 -17.607  -7.825  1.00  0.00     0.258 C 
ATOM     16  O9  MOL A   1      13.589 -17.763  -9.019  1.00  0.00    -0.271 OA
BRANCH  15  17
ATOM     17 C10  MOL A   1      14.063 -16.780  -6.899  1.00  0.00     0.167 C 
BRANCH  17  18
ATOM     18 O11  MOL A   1      15.370 -16.602  -7.438  1.00  0.00    -0.480 OA
BRANCH  18  19
ATOM     19 C12  MOL A   1      16.504 -17.146  -6.829  1.00  0.00     0.166 A 
ATOM     20 C13  MOL A   1      17.017 -16.609  -5.626  1.00  0.00     0.012 A 
ATOM     21 C21  MOL A   1      18.110 -17.237  -5.006  1.00  0.00    -0.054 A 
ATOM     22 C22  MOL A   1      18.715 -18.348  -5.594  1.00  0.00    -0.058 A 
ATOM     23 C23  MOL A   1      18.239 -18.846  -6.807  1.00  0.00    -0.016 A 
ATOM     24 C24  MOL A   1      17.132 -18.246  -7.436  1.00  0.00     0.161 A 
BRANCH  20  25
ATOM     25 C14  MOL A   1      16.421 -15.374  -4.987  1.00  0.00     0.028 C 
BRANCH  25  26
ATOM     26 N15  MOL A   1      16.161 -15.610  -3.552  1.00  0.00    -0.287 NA
ATOM     27 C16  MOL A   1      15.014 -16.512  -3.350  1.00  0.00     0.064 C 
ATOM     28 C17  MOL A   1      14.178 -15.423  -2.707  1.00  0.00     0.272 C 
ATOM     29 F18  MOL A   1      13.912 -15.646  -1.367  1.00  0.00    -0.204 F 
ATOM     30 F19  MOL A   1      13.064 -15.064  -3.448  1.00  0.00    -0.204 F 
ATOM     31 C20  MOL A   1      15.375 -14.523  -2.944  1.00  0.00     0.064 C 
ENDBRANCH  25  26
ENDBRANCH  20  25
BRANCH  24  32
ATOM     32 O25  MOL A   1      16.623 -18.715  -8.656  1.00  0.00    -0.493 OA
ATOM     33 C26  MOL A   1      16.327 -20.080  -8.934  1.00  0.00     0.078 C 
ENDBRANCH  24  32
ENDBRANCH  18  19
ENDBRANCH  17  18
ENDBRANCH  15  17
ENDBRANCH   8  14
ENDBRANCH   1   8
TORSDOF 10
ENDMDL
MODEL 126
REMARK VINA RESULT:    -7.601      5.508      9.845
REMARK INTER + INTRA:         -13.093
REMARK INTER:                 -11.910
REMARK INTRA:                  -1.184
REMARK UNBOUND:                -1.048
REMARK  10 active torsions:
REMARK  status: ('A' for Active; 'I' for Inactive)
REMARK   1   A    between atoms:  C27_1   and   C6_8  
REMARK   2   A    between atoms:  C6_8    and   C5_9  
REMARK   3   A    between atoms:  C5_9    and   C3_12 
REMARK   4   A    between atoms:  C6_8    and   N7_14 
REMARK   5   A    between atoms:  C8_15   and  C10_17 
REMARK   6   A    between atoms: C10_17   and  O11_18 
REMARK   7   A    between atoms: O11_18   and  C12_19 
REMARK   8   A    between atoms: C13_20   and  C14_25 
REMARK   9   A    between atoms: C14_25   and  N15_26 
REMARK   10  A    between atoms: C24_24   and  O25_32 
ROOT
ATOM      1 C27  MOL A   1       7.033 -17.865  -8.354  1.00  0.00    -0.024 A 
ATOM      2 C28  MOL A   1       6.525 -16.668  -7.818  1.00  0.00    -0.057 A 
ATOM      3 C29  MOL A   1       5.254 -16.637  -7.234  1.00  0.00    -0.061 A 
ATOM      4 C30  MOL A   1       4.479 -17.799  -7.178  1.00  0.00    -0.048 A 
ATOM      5 C31  MOL A   1       4.974 -18.998  -7.705  1.00  0.00     0.018 A 
ATOM      6 Br32 MOL A   1       3.922 -20.593  -7.609  1.00  0.00    -0.051 Br
ATOM      7 C33  MOL A   1       6.242 -19.031  -8.295  1.00  0.00    -0.043 A 
ENDROOT
BRANCH   1   8
ATOM      8  C6  MOL A   1       8.377 -17.873  -9.049  1.00  0.00     0.063 C 
BRANCH   8   9
ATOM      9  C5  MOL A   1       8.203 -18.260 -10.529  1.00  0.00     0.051 C 
BRANCH   9  12
ATOM     10  C1  MOL A   1       8.985 -22.048 -10.989  1.00  0.00     0.006 C 
ATOM     11  N2  MOL A   1       8.304 -20.801 -10.672  1.00  0.00    -0.359 N 
ATOM     12  C3  MOL A   1       8.936 -19.529 -10.856  1.00  0.00     0.222 C 
ATOM     13  O4  MOL A   1      10.116 -19.467 -11.297  1.00  0.00    -0.275 OA
ENDBRANCH   9  12
ENDBRANCH   8   9
BRANCH   8  14
ATOM     14  N7  MOL A   1       9.292 -18.802  -8.376  1.00  0.00    -0.346 N 
ATOM     15  C8  MOL A   1      10.521 -18.377  -7.785  1.00  0.00     0.258 C 
ATOM     16  O9  MOL A   1      10.866 -17.166  -7.836  1.00  0.00    -0.271 OA
BRANCH  15  17
ATOM     17 C10  MOL A   1      11.407 -19.364  -7.086  1.00  0.00     0.167 C 
BRANCH  17  18
ATOM     18 O11  MOL A   1      12.720 -19.337  -7.642  1.00  0.00    -0.480 OA
BRANCH  18  19
ATOM     19 C12  MOL A   1      13.833 -19.806  -6.938  1.00  0.00     0.166 A 
ATOM     20 C13  MOL A   1      14.586 -18.947  -6.105  1.00  0.00     0.012 A 
ATOM     21 C21  MOL A   1      15.648 -19.478  -5.355  1.00  0.00    -0.054 A 
ATOM     22 C22  MOL A   1      15.989 -20.826  -5.466  1.00  0.00    -0.058 A 
ATOM     23 C23  MOL A   1      15.276 -21.661  -6.327  1.00  0.00    -0.016 A 
ATOM     24 C24  MOL A   1      14.195 -21.156  -7.073  1.00  0.00     0.161 A 
BRANCH  20  25
ATOM     25 C14  MOL A   1      14.280 -17.469  -6.000  1.00  0.00     0.028 C 
BRANCH  25  26
ATOM     26 N15  MOL A   1      14.984 -16.720  -7.061  1.00  0.00    -0.287 NA
ATOM     27 C16  MOL A   1      15.645 -15.517  -6.527  1.00  0.00     0.064 C 
ATOM     28 C17  MOL A   1      14.738 -14.584  -7.303  1.00  0.00     0.272 C 
ATOM     29 F18  MOL A   1      15.393 -13.862  -8.285  1.00  0.00    -0.204 F 
ATOM     30 F19  MOL A   1      13.910 -13.816  -6.500  1.00  0.00    -0.204 F 
ATOM     31 C20  MOL A   1      14.074 -15.845  -7.821  1.00  0.00     0.064 C 
ENDBRANCH  25  26
ENDBRANCH  20  25
BRANCH  24  32
ATOM     32 O25  MOL A   1      13.454 -21.961  -7.950  1.00  0.00    -0.493 OA
ATOM     33 C26  MOL A   1      13.805 -23.293  -8.312  1.00  0.00     0.078 C 
ENDBRANCH  24  32
ENDBRANCH  18  19
ENDBRANCH  17  18
ENDBRANCH  15  17
ENDBRANCH   8  14
ENDBRANCH   1   8
TORSDOF 10
ENDMDL
MODEL 127
REMARK VINA RESULT:    -7.597      4.890      9.969
REMARK INTER + INTRA:         -13.087
REMARK INTER:                 -12.001
REMARK INTRA:                  -1.086
REMARK UNBOUND:                -1.048
REMARK  10 active torsions:
REMARK  status: ('A' for Active; 'I' for Inactive)
REMARK   1   A    between atoms:  C27_1   and   C6_8  
REMARK   2   A    between atoms:  C6_8    and   C5_9  
REMARK   3   A    between atoms:  C5_9    and   C3_12 
REMARK   4   A    between atoms:  C6_8    and   N7_14 
REMARK   5   A    between atoms:  C8_15   and  C10_17 
REMARK   6   A    between atoms: C10_17   and  O11_18 
REMARK   7   A    between atoms: O11_18   and  C12_19 
REMARK   8   A    between atoms: C13_20   and  C14_25 
REMARK   9   A    between atoms: C14_25   and  N15_26 
REMARK   10  A    between atoms: C24_24   and  O25_32 
ROOT
ATOM      1 C27  MOL A   1       6.786 -20.051  -9.411  1.00  0.00    -0.024 A 
ATOM      2 C28  MOL A   1       6.899 -20.930 -10.504  1.00  0.00    -0.057 A 
ATOM      3 C29  MOL A   1       5.883 -21.852 -10.779  1.00  0.00    -0.061 A 
ATOM      4 C30  MOL A   1       4.746 -21.905  -9.967  1.00  0.00    -0.048 A 
ATOM      5 C31  MOL A   1       4.620 -21.034  -8.879  1.00  0.00     0.018 A 
ATOM      6 Br32 MOL A   1       3.054 -21.093  -7.782  1.00  0.00    -0.051 Br
ATOM      7 C33  MOL A   1       5.636 -20.115  -8.598  1.00  0.00    -0.043 A 
ENDROOT
BRANCH   1   8
ATOM      8  C6  MOL A   1       7.922 -19.108  -9.077  1.00  0.00     0.063 C 
BRANCH   8   9
ATOM      9  C5  MOL A   1       8.396 -18.383 -10.350  1.00  0.00     0.051 C 
BRANCH   9  12
ATOM     10  C1  MOL A   1       6.060 -15.850 -12.167  1.00  0.00     0.006 C 
ATOM     11  N2  MOL A   1       6.878 -17.018 -11.873  1.00  0.00    -0.359 N 
ATOM     12  C3  MOL A   1       7.569 -17.161 -10.627  1.00  0.00     0.222 C 
ATOM     13  O4  MOL A   1       7.484 -16.258  -9.750  1.00  0.00    -0.275 OA
ENDBRANCH   9  12
ENDBRANCH   8   9
BRANCH   8  14
ATOM     14  N7  MOL A   1       9.030 -19.845  -8.460  1.00  0.00    -0.346 N 
ATOM     15  C8  MOL A   1      10.096 -19.192  -7.767  1.00  0.00     0.258 C 
ATOM     16  O9  MOL A   1      10.118 -17.936  -7.675  1.00  0.00    -0.271 OA
BRANCH  15  17
ATOM     17 C10  MOL A   1      11.191 -19.995  -7.131  1.00  0.00     0.167 C 
BRANCH  17  18
ATOM     18 O11  MOL A   1      12.316 -20.082  -8.003  1.00  0.00    -0.480 OA
BRANCH  18  19
ATOM     19 C12  MOL A   1      13.585 -20.441  -7.541  1.00  0.00     0.166 A 
ATOM     20 C13  MOL A   1      14.530 -19.460  -7.163  1.00  0.00     0.012 A 
ATOM     21 C21  MOL A   1      15.765 -19.867  -6.630  1.00  0.00    -0.054 A 
ATOM     22 C22  MOL A   1      16.075 -21.222  -6.518  1.00  0.00    -0.058 A 
ATOM     23 C23  MOL A   1      15.161 -22.189  -6.938  1.00  0.00    -0.016 A 
ATOM     24 C24  MOL A   1      13.910 -21.805  -7.457  1.00  0.00     0.161 A 
BRANCH  20  25
ATOM     25 C14  MOL A   1      14.250 -17.982  -7.319  1.00  0.00     0.028 C 
BRANCH  25  26
ATOM     26 N15  MOL A   1      15.493 -17.201  -7.155  1.00  0.00    -0.287 NA
ATOM     27 C16  MOL A   1      15.232 -15.891  -6.535  1.00  0.00     0.064 C 
ATOM     28 C17  MOL A   1      15.634 -15.136  -7.787  1.00  0.00     0.272 C 
ATOM     29 F18  MOL A   1      16.786 -14.385  -7.637  1.00  0.00    -0.204 F 
ATOM     30 F19  MOL A   1      14.589 -14.449  -8.384  1.00  0.00    -0.204 F 
ATOM     31 C20  MOL A   1      15.879 -16.504  -8.394  1.00  0.00     0.064 C 
ENDBRANCH  25  26
ENDBRANCH  20  25
BRANCH  24  32
ATOM     32 O25  MOL A   1      12.964 -22.745  -7.891  1.00  0.00    -0.493 OA
ATOM     33 C26  MOL A   1      13.284 -24.037  -8.394  1.00  0.00     0.078 C 
ENDBRANCH  24  32
ENDBRANCH  18  19
ENDBRANCH  17  18
ENDBRANCH  15  17
ENDBRANCH   8  14
ENDBRANCH   1   8
TORSDOF 10
ENDMDL
MODEL 128
REMARK VINA RESULT:    -7.596      9.476     13.096
REMARK INTER + INTRA:         -13.084
REMARK INTER:                 -11.203
REMARK INTRA:                  -1.882
REMARK UNBOUND:                -1.048
REMARK  10 active torsions:
REMARK  status: ('A' for Active; 'I' for Inactive)
REMARK   1   A    between atoms:  C27_1   and   C6_8  
REMARK   2   A    between atoms:  C6_8    and   C5_9  
REMARK   3   A    between atoms:  C5_9    and   C3_12 
REMARK   4   A    between atoms:  C6_8    and   N7_14 
REMARK   5   A    between atoms:  C8_15   and  C10_17 
REMARK   6   A    between atoms: C10_17   and  O11_18 
REMARK   7   A    between atoms: O11_18   and  C12_19 
REMARK   8   A    between atoms: C13_20   and  C14_25 
REMARK   9   A    between atoms: C14_25   and  N15_26 
REMARK   10  A    between atoms: C24_24   and  O25_32 
ROOT
ATOM      1 C27  MOL A   1      15.006 -17.974  -1.331  1.00  0.00    -0.024 A 
ATOM      2 C28  MOL A   1      15.623 -18.942  -2.144  1.00  0.00    -0.057 A 
ATOM      3 C29  MOL A   1      15.607 -20.292  -1.774  1.00  0.00    -0.061 A 
ATOM      4 C30  MOL A   1      14.977 -20.687  -0.591  1.00  0.00    -0.048 A 
ATOM      5 C31  MOL A   1      14.357 -19.735   0.225  1.00  0.00     0.018 A 
ATOM      6 Br32 MOL A   1      13.476 -20.280   1.834  1.00  0.00    -0.051 Br
ATOM      7 C33  MOL A   1      14.375 -18.385  -0.138  1.00  0.00    -0.043 A 
ENDROOT
BRANCH   1   8
ATOM      8  C6  MOL A   1      15.090 -16.509  -1.701  1.00  0.00     0.063 C 
BRANCH   8   9
ATOM      9  C5  MOL A   1      14.180 -15.679  -0.778  1.00  0.00     0.051 C 
BRANCH   9  12
ATOM     10  C1  MOL A   1      16.763 -13.753   1.412  1.00  0.00     0.006 C 
ATOM     11  N2  MOL A   1      16.008 -14.823   0.776  1.00  0.00    -0.359 N 
ATOM     12  C3  MOL A   1      14.932 -14.553  -0.130  1.00  0.00     0.222 C 
ATOM     13  O4  MOL A   1      14.611 -13.362  -0.393  1.00  0.00    -0.275 OA
ENDBRANCH   9  12
ENDBRANCH   8   9
BRANCH   8  14
ATOM     14  N7  MOL A   1      14.714 -16.317  -3.105  1.00  0.00    -0.346 N 
ATOM     15  C8  MOL A   1      15.283 -15.291  -3.921  1.00  0.00     0.258 C 
ATOM     16  O9  MOL A   1      16.136 -14.499  -3.441  1.00  0.00    -0.271 OA
BRANCH  15  17
ATOM     17 C10  MOL A   1      14.882 -15.155  -5.359  1.00  0.00     0.167 C 
BRANCH  17  18
ATOM     18 O11  MOL A   1      15.928 -15.611  -6.214  1.00  0.00    -0.480 OA
BRANCH  18  19
ATOM     19 C12  MOL A   1      16.624 -16.797  -5.966  1.00  0.00     0.166 A 
ATOM     20 C13  MOL A   1      15.999 -18.056  -6.112  1.00  0.00     0.012 A 
ATOM     21 C21  MOL A   1      16.759 -19.224  -5.930  1.00  0.00    -0.054 A 
ATOM     22 C22  MOL A   1      18.102 -19.145  -5.561  1.00  0.00    -0.058 A 
ATOM     23 C23  MOL A   1      18.704 -17.901  -5.369  1.00  0.00    -0.016 A 
ATOM     24 C24  MOL A   1      17.968 -16.717  -5.565  1.00  0.00     0.161 A 
BRANCH  20  25
ATOM     25 C14  MOL A   1      14.532 -18.182  -6.458  1.00  0.00     0.028 C 
BRANCH  25  26
ATOM     26 N15  MOL A   1      14.337 -18.087  -7.920  1.00  0.00    -0.287 NA
ATOM     27 C16  MOL A   1      13.292 -17.108  -8.264  1.00  0.00     0.064 C 
ATOM     28 C17  MOL A   1      12.369 -18.177  -8.815  1.00  0.00     0.272 C 
ATOM     29 F18  MOL A   1      12.164 -18.084 -10.181  1.00  0.00    -0.204 F 
ATOM     30 F19  MOL A   1      11.205 -18.340  -8.082  1.00  0.00    -0.204 F 
ATOM     31 C20  MOL A   1      13.463 -19.156  -8.434  1.00  0.00     0.064 C 
ENDBRANCH  25  26
ENDBRANCH  20  25
BRANCH  24  32
ATOM     32 O25  MOL A   1      18.535 -15.448  -5.381  1.00  0.00    -0.493 OA
ATOM     33 C26  MOL A   1      19.594 -15.163  -4.473  1.00  0.00     0.078 C 
ENDBRANCH  24  32
ENDBRANCH  18  19
ENDBRANCH  17  18
ENDBRANCH  15  17
ENDBRANCH   8  14
ENDBRANCH   1   8
TORSDOF 10
ENDMDL
MODEL 129
REMARK VINA RESULT:    -7.595      6.067     10.552
REMARK INTER + INTRA:         -13.084
REMARK INTER:                 -12.044
REMARK INTRA:                  -1.041
REMARK UNBOUND:                -1.048
REMARK  10 active torsions:
REMARK  status: ('A' for Active; 'I' for Inactive)
REMARK   1   A    between atoms:  C27_1   and   C6_8  
REMARK   2   A    between atoms:  C6_8    and   C5_9  
REMARK   3   A    between atoms:  C5_9    and   C3_12 
REMARK   4   A    between atoms:  C6_8    and   N7_14 
REMARK   5   A    between atoms:  C8_15   and  C10_17 
REMARK   6   A    between atoms: C10_17   and  O11_18 
REMARK   7   A    between atoms: O11_18   and  C12_19 
REMARK   8   A    between atoms: C13_20   and  C14_25 
REMARK   9   A    between atoms: C14_25   and  N15_26 
REMARK   10  A    between atoms: C24_24   and  O25_32 
ROOT
ATOM      1 C27  MOL A   1       7.472 -17.693 -10.315  1.00  0.00    -0.024 A 
ATOM      2 C28  MOL A   1       7.833 -18.331 -11.516  1.00  0.00    -0.057 A 
ATOM      3 C29  MOL A   1       7.436 -17.799 -12.747  1.00  0.00    -0.061 A 
ATOM      4 C30  MOL A   1       6.675 -16.627 -12.792  1.00  0.00    -0.048 A 
ATOM      5 C31  MOL A   1       6.312 -15.981 -11.605  1.00  0.00     0.018 A 
ATOM      6 Br32 MOL A   1       5.290 -14.365 -11.669  1.00  0.00    -0.051 Br
ATOM      7 C33  MOL A   1       6.703 -16.513 -10.372  1.00  0.00    -0.043 A 
ENDROOT
BRANCH   1   8
ATOM      8  C6  MOL A   1       7.844 -18.314  -8.986  1.00  0.00     0.063 C 
BRANCH   8   9
ATOM      9  C5  MOL A   1       6.590 -18.464  -8.105  1.00  0.00     0.051 C 
BRANCH   9  12
ATOM     10  C1  MOL A   1       3.967 -21.343  -8.039  1.00  0.00     0.006 C 
ATOM     11  N2  MOL A   1       4.602 -20.041  -7.891  1.00  0.00    -0.359 N 
ATOM     12  C3  MOL A   1       5.967 -19.821  -8.260  1.00  0.00     0.222 C 
ATOM     13  O4  MOL A   1       6.658 -20.770  -8.724  1.00  0.00    -0.275 OA
ENDBRANCH   9  12
ENDBRANCH   8   9
BRANCH   8  14
ATOM     14  N7  MOL A   1       8.856 -17.498  -8.309  1.00  0.00    -0.346 N 
ATOM     15  C8  MOL A   1      10.241 -17.849  -8.289  1.00  0.00     0.258 C 
ATOM     16  O9  MOL A   1      10.638 -18.901  -8.859  1.00  0.00    -0.271 OA
BRANCH  15  17
ATOM     17 C10  MOL A   1      11.239 -16.964  -7.604  1.00  0.00     0.167 C 
BRANCH  17  18
ATOM     18 O11  MOL A   1      12.371 -17.721  -7.184  1.00  0.00    -0.480 OA
BRANCH  18  19
ATOM     19 C12  MOL A   1      13.673 -17.378  -7.559  1.00  0.00     0.166 A 
ATOM     20 C13  MOL A   1      14.485 -18.278  -8.287  1.00  0.00     0.012 A 
ATOM     21 C21  MOL A   1      15.758 -17.862  -8.712  1.00  0.00    -0.054 A 
ATOM     22 C22  MOL A   1      16.236 -16.595  -8.379  1.00  0.00    -0.058 A 
ATOM     23 C23  MOL A   1      15.453 -15.727  -7.618  1.00  0.00    -0.016 A 
ATOM     24 C24  MOL A   1      14.167 -16.114  -7.198  1.00  0.00     0.161 A 
BRANCH  20  25
ATOM     25 C14  MOL A   1      14.022 -19.679  -8.620  1.00  0.00     0.028 C 
BRANCH  25  26
ATOM     26 N15  MOL A   1      14.950 -20.678  -8.052  1.00  0.00    -0.287 NA
ATOM     27 C16  MOL A   1      14.358 -22.026  -8.047  1.00  0.00     0.064 C 
ATOM     28 C17  MOL A   1      14.322 -22.084  -6.532  1.00  0.00     0.272 C 
ATOM     29 F18  MOL A   1      15.174 -23.032  -5.992  1.00  0.00    -0.204 F 
ATOM     30 F19  MOL A   1      13.042 -22.115  -6.005  1.00  0.00    -0.204 F 
ATOM     31 C20  MOL A   1      14.920 -20.691  -6.579  1.00  0.00     0.064 C 
ENDBRANCH  25  26
ENDBRANCH  20  25
BRANCH  24  32
ATOM     32 O25  MOL A   1      13.348 -15.272  -6.431  1.00  0.00    -0.493 OA
ATOM     33 C26  MOL A   1      13.814 -14.441  -5.373  1.00  0.00     0.078 C 
ENDBRANCH  24  32
ENDBRANCH  18  19
ENDBRANCH  17  18
ENDBRANCH  15  17
ENDBRANCH   8  14
ENDBRANCH   1   8
TORSDOF 10
ENDMDL
MODEL 130
REMARK VINA RESULT:    -7.582      5.860     10.486
REMARK INTER + INTRA:         -13.064
REMARK INTER:                 -11.839
REMARK INTRA:                  -1.224
REMARK UNBOUND:                -1.048
REMARK  10 active torsions:
REMARK  status: ('A' for Active; 'I' for Inactive)
REMARK   1   A    between atoms:  C27_1   and   C6_8  
REMARK   2   A    between atoms:  C6_8    and   C5_9  
REMARK   3   A    between atoms:  C5_9    and   C3_12 
REMARK   4   A    between atoms:  C6_8    and   N7_14 
REMARK   5   A    between atoms:  C8_15   and  C10_17 
REMARK   6   A    between atoms: C10_17   and  O11_18 
REMARK   7   A    between atoms: O11_18   and  C12_19 
REMARK   8   A    between atoms: C13_20   and  C14_25 
REMARK   9   A    between atoms: C14_25   and  N15_26 
REMARK   10  A    between atoms: C24_24   and  O25_32 
ROOT
ATOM      1 C27  MOL A   1       8.022 -17.848  -9.296  1.00  0.00    -0.024 A 
ATOM      2 C28  MOL A   1       7.864 -17.191 -10.530  1.00  0.00    -0.057 A 
ATOM      3 C29  MOL A   1       6.813 -16.287 -10.721  1.00  0.00    -0.061 A 
ATOM      4 C30  MOL A   1       5.911 -16.031  -9.685  1.00  0.00    -0.048 A 
ATOM      5 C31  MOL A   1       6.059 -16.676  -8.452  1.00  0.00     0.018 A 
ATOM      6 Br32 MOL A   1       4.836 -16.308  -7.026  1.00  0.00    -0.051 Br
ATOM      7 C33  MOL A   1       7.105 -17.584  -8.259  1.00  0.00    -0.043 A 
ENDROOT
BRANCH   1   8
ATOM      8  C6  MOL A   1       9.117 -18.878  -9.122  1.00  0.00     0.063 C 
BRANCH   8   9
ATOM      9  C5  MOL A   1       8.606 -20.051  -8.266  1.00  0.00     0.051 C 
BRANCH   9  12
ATOM     10  C1  MOL A   1       6.376 -22.330 -10.503  1.00  0.00     0.006 C 
ATOM     11  N2  MOL A   1       6.835 -21.233  -9.663  1.00  0.00    -0.359 N 
ATOM     12  C3  MOL A   1       8.159 -21.202  -9.120  1.00  0.00     0.222 C 
ATOM     13  O4  MOL A   1       8.963 -22.144  -9.359  1.00  0.00    -0.275 OA
ENDBRANCH   9  12
ENDBRANCH   8   9
BRANCH   8  14
ATOM     14  N7  MOL A   1      10.298 -18.265  -8.504  1.00  0.00    -0.346 N 
ATOM     15  C8  MOL A   1      11.530 -18.092  -9.207  1.00  0.00     0.258 C 
ATOM     16  O9  MOL A   1      11.642 -18.480 -10.400  1.00  0.00    -0.271 OA
BRANCH  15  17
ATOM     17 C10  MOL A   1      12.699 -17.434  -8.536  1.00  0.00     0.167 C 
BRANCH  17  18
ATOM     18 O11  MOL A   1      13.820 -18.314  -8.512  1.00  0.00    -0.480 OA
BRANCH  18  19
ATOM     19 C12  MOL A   1      14.294 -18.879  -7.324  1.00  0.00     0.166 A 
ATOM     20 C13  MOL A   1      15.132 -18.147  -6.451  1.00  0.00     0.012 A 
ATOM     21 C21  MOL A   1      15.520 -18.725  -5.230  1.00  0.00    -0.054 A 
ATOM     22 C22  MOL A   1      15.125 -20.022  -4.903  1.00  0.00    -0.058 A 
ATOM     23 C23  MOL A   1      14.340 -20.760  -5.789  1.00  0.00    -0.016 A 
ATOM     24 C24  MOL A   1      13.922 -20.196  -7.009  1.00  0.00     0.161 A 
BRANCH  20  25
ATOM     25 C14  MOL A   1      15.624 -16.759  -6.795  1.00  0.00     0.028 C 
BRANCH  25  26
ATOM     26 N15  MOL A   1      16.993 -16.819  -7.345  1.00  0.00    -0.287 NA
ATOM     27 C16  MOL A   1      17.068 -16.200  -8.680  1.00  0.00     0.064 C 
ATOM     28 C17  MOL A   1      17.384 -17.520  -9.355  1.00  0.00     0.272 C 
ATOM     29 F18  MOL A   1      18.658 -17.578  -9.892  1.00  0.00    -0.204 F 
ATOM     30 F19  MOL A   1      16.392 -17.958 -10.216  1.00  0.00    -0.204 F 
ATOM     31 C20  MOL A   1      17.286 -18.122  -7.967  1.00  0.00     0.064 C 
ENDBRANCH  25  26
ENDBRANCH  20  25
BRANCH  24  32
ATOM     32 O25  MOL A   1      13.134 -20.904  -7.927  1.00  0.00    -0.493 OA
ATOM     33 C26  MOL A   1      11.946 -21.614  -7.591  1.00  0.00     0.078 C 
ENDBRANCH  24  32
ENDBRANCH  18  19
ENDBRANCH  17  18
ENDBRANCH  15  17
ENDBRANCH   8  14
ENDBRANCH   1   8
TORSDOF 10
ENDMDL
MODEL 131
REMARK VINA RESULT:    -7.582      5.670      7.652
REMARK INTER + INTRA:         -13.063
REMARK INTER:                 -11.974
REMARK INTRA:                  -1.088
REMARK UNBOUND:                -1.048
REMARK  10 active torsions:
REMARK  status: ('A' for Active; 'I' for Inactive)
REMARK   1   A    between atoms:  C27_1   and   C6_8  
REMARK   2   A    between atoms:  C6_8    and   C5_9  
REMARK   3   A    between atoms:  C5_9    and   C3_12 
REMARK   4   A    between atoms:  C6_8    and   N7_14 
REMARK   5   A    between atoms:  C8_15   and  C10_17 
REMARK   6   A    between atoms: C10_17   and  O11_18 
REMARK   7   A    between atoms: O11_18   and  C12_19 
REMARK   8   A    between atoms: C13_20   and  C14_25 
REMARK   9   A    between atoms: C14_25   and  N15_26 
REMARK   10  A    between atoms: C24_24   and  O25_32 
ROOT
ATOM      1 C27  MOL A   1      12.305 -19.967  -7.377  1.00  0.00    -0.024 A 
ATOM      2 C28  MOL A   1      12.096 -20.664  -6.172  1.00  0.00    -0.057 A 
ATOM      3 C29  MOL A   1      13.008 -21.636  -5.750  1.00  0.00    -0.061 A 
ATOM      4 C30  MOL A   1      14.136 -21.923  -6.523  1.00  0.00    -0.048 A 
ATOM      5 C31  MOL A   1      14.358 -21.235  -7.721  1.00  0.00     0.018 A 
ATOM      6 Br32 MOL A   1      15.914 -21.613  -8.768  1.00  0.00    -0.051 Br
ATOM      7 C33  MOL A   1      13.445 -20.266  -8.150  1.00  0.00    -0.043 A 
ENDROOT
BRANCH   1   8
ATOM      8  C6  MOL A   1      11.277 -18.969  -7.863  1.00  0.00     0.063 C 
BRANCH   8   9
ATOM      9  C5  MOL A   1      11.423 -17.644  -7.094  1.00  0.00     0.051 C 
BRANCH   9  12
ATOM     10  C1  MOL A   1      14.593 -15.386  -6.935  1.00  0.00     0.006 C 
ATOM     11  N2  MOL A   1      13.387 -16.111  -6.563  1.00  0.00    -0.359 N 
ATOM     12  C3  MOL A   1      12.658 -16.899  -7.511  1.00  0.00     0.222 C 
ATOM     13  O4  MOL A   1      13.053 -16.976  -8.706  1.00  0.00    -0.275 OA
ENDBRANCH   9  12
ENDBRANCH   8   9
BRANCH   8  14
ATOM     14  N7  MOL A   1       9.924 -19.513  -7.701  1.00  0.00    -0.346 N 
ATOM     15  C8  MOL A   1       9.269 -20.263  -8.726  1.00  0.00     0.258 C 
ATOM     16  O9  MOL A   1       9.845 -20.473  -9.826  1.00  0.00    -0.271 OA
BRANCH  15  17
ATOM     17 C10  MOL A   1       7.895 -20.819  -8.498  1.00  0.00     0.167 C 
BRANCH  17  18
ATOM     18 O11  MOL A   1       6.917 -20.021  -9.161  1.00  0.00    -0.480 OA
BRANCH  18  19
ATOM     19 C12  MOL A   1       6.200 -19.024  -8.495  1.00  0.00     0.166 A 
ATOM     20 C13  MOL A   1       5.030 -19.330  -7.762  1.00  0.00     0.012 A 
ATOM     21 C21  MOL A   1       4.385 -18.310  -7.043  1.00  0.00    -0.054 A 
ATOM     22 C22  MOL A   1       4.863 -17.000  -7.090  1.00  0.00    -0.058 A 
ATOM     23 C23  MOL A   1       5.988 -16.691  -7.854  1.00  0.00    -0.016 A 
ATOM     24 C24  MOL A   1       6.663 -17.700  -8.566  1.00  0.00     0.161 A 
BRANCH  20  25
ATOM     25 C14  MOL A   1       4.452 -20.727  -7.732  1.00  0.00     0.028 C 
BRANCH  25  26
ATOM     26 N15  MOL A   1       3.271 -20.816  -8.615  1.00  0.00    -0.287 NA
ATOM     27 C16  MOL A   1       2.018 -20.857  -7.841  1.00  0.00     0.064 C 
ATOM     28 C17  MOL A   1       1.706 -22.273  -8.282  1.00  0.00     0.272 C 
ATOM     29 F18  MOL A   1       0.588 -22.369  -9.093  1.00  0.00    -0.204 F 
ATOM     30 F19  MOL A   1       1.732 -23.197  -7.250  1.00  0.00    -0.204 F 
ATOM     31 C20  MOL A   1       3.008 -22.197  -9.054  1.00  0.00     0.064 C 
ENDBRANCH  25  26
ENDBRANCH  20  25
BRANCH  24  32
ATOM     32 O25  MOL A   1       7.796 -17.430  -9.347  1.00  0.00    -0.493 OA
ATOM     33 C26  MOL A   1       7.789 -17.317 -10.766  1.00  0.00     0.078 C 
ENDBRANCH  24  32
ENDBRANCH  18  19
ENDBRANCH  17  18
ENDBRANCH  15  17
ENDBRANCH   8  14
ENDBRANCH   1   8
TORSDOF 10
ENDMDL
MODEL 132
REMARK VINA RESULT:    -7.575      4.955      9.797
REMARK INTER + INTRA:         -13.052
REMARK INTER:                 -12.307
REMARK INTRA:                  -0.745
REMARK UNBOUND:                -1.048
REMARK  10 active torsions:
REMARK  status: ('A' for Active; 'I' for Inactive)
REMARK   1   A    between atoms:  C27_1   and   C6_8  
REMARK   2   A    between atoms:  C6_8    and   C5_9  
REMARK   3   A    between atoms:  C5_9    and   C3_12 
REMARK   4   A    between atoms:  C6_8    and   N7_14 
REMARK   5   A    between atoms:  C8_15   and  C10_17 
REMARK   6   A    between atoms: C10_17   and  O11_18 
REMARK   7   A    between atoms: O11_18   and  C12_19 
REMARK   8   A    between atoms: C13_20   and  C14_25 
REMARK   9   A    between atoms: C14_25   and  N15_26 
REMARK   10  A    between atoms: C24_24   and  O25_32 
ROOT
ATOM      1 C27  MOL A   1       6.999 -16.976 -10.416  1.00  0.00    -0.024 A 
ATOM      2 C28  MOL A   1       7.255 -17.639 -11.631  1.00  0.00    -0.057 A 
ATOM      3 C29  MOL A   1       6.806 -17.098 -12.840  1.00  0.00    -0.061 A 
ATOM      4 C30  MOL A   1       6.100 -15.892 -12.850  1.00  0.00    -0.048 A 
ATOM      5 C31  MOL A   1       5.842 -15.221 -11.649  1.00  0.00     0.018 A 
ATOM      6 Br32 MOL A   1       4.894 -13.559 -11.665  1.00  0.00    -0.051 Br
ATOM      7 C33  MOL A   1       6.284 -15.762 -10.437  1.00  0.00    -0.043 A 
ENDROOT
BRANCH   1   8
ATOM      8  C6  MOL A   1       7.424 -17.605  -9.107  1.00  0.00     0.063 C 
BRANCH   8   9
ATOM      9  C5  MOL A   1       7.246 -16.598  -7.956  1.00  0.00     0.051 C 
BRANCH   9  12
ATOM     10  C1  MOL A   1       4.003 -15.677  -6.005  1.00  0.00     0.006 C 
ATOM     11  N2  MOL A   1       5.325 -15.605  -6.610  1.00  0.00    -0.359 N 
ATOM     12  C3  MOL A   1       5.884 -16.706  -7.334  1.00  0.00     0.222 C 
ATOM     13  O4  MOL A   1       5.231 -17.779  -7.457  1.00  0.00    -0.275 OA
ENDBRANCH   9  12
ENDBRANCH   8   9
BRANCH   8  14
ATOM     14  N7  MOL A   1       8.817 -18.056  -9.188  1.00  0.00    -0.346 N 
ATOM     15  C8  MOL A   1       9.239 -19.339  -8.719  1.00  0.00     0.258 C 
ATOM     16  O9  MOL A   1       8.407 -20.131  -8.201  1.00  0.00    -0.271 OA
BRANCH  15  17
ATOM     17 C10  MOL A   1      10.672 -19.760  -8.849  1.00  0.00     0.167 C 
BRANCH  17  18
ATOM     18 O11  MOL A   1      10.992 -20.749  -7.874  1.00  0.00    -0.480 OA
BRANCH  18  19
ATOM     19 C12  MOL A   1      12.296 -21.218  -7.693  1.00  0.00     0.166 A 
ATOM     20 C13  MOL A   1      13.325 -20.360  -7.242  1.00  0.00     0.012 A 
ATOM     21 C21  MOL A   1      14.603 -20.891  -6.998  1.00  0.00    -0.054 A 
ATOM     22 C22  MOL A   1      14.868 -22.238  -7.244  1.00  0.00    -0.058 A 
ATOM     23 C23  MOL A   1      13.864 -23.072  -7.737  1.00  0.00    -0.016 A 
ATOM     24 C24  MOL A   1      12.571 -22.567  -7.970  1.00  0.00     0.161 A 
BRANCH  20  25
ATOM     25 C14  MOL A   1      13.089 -18.883  -7.015  1.00  0.00     0.028 C 
BRANCH  25  26
ATOM     26 N15  MOL A   1      14.067 -18.081  -7.777  1.00  0.00    -0.287 NA
ATOM     27 C16  MOL A   1      14.727 -17.078  -6.924  1.00  0.00     0.064 C 
ATOM     28 C17  MOL A   1      14.098 -15.920  -7.673  1.00  0.00     0.272 C 
ATOM     29 F18  MOL A   1      15.010 -15.150  -8.374  1.00  0.00    -0.204 F 
ATOM     30 F19  MOL A   1      13.208 -15.181  -6.911  1.00  0.00    -0.204 F 
ATOM     31 C20  MOL A   1      13.427 -16.982  -8.521  1.00  0.00     0.064 C 
ENDBRANCH  25  26
ENDBRANCH  20  25
BRANCH  24  32
ATOM     32 O25  MOL A   1      11.535 -23.371  -8.466  1.00  0.00    -0.493 OA
ATOM     33 C26  MOL A   1      11.431 -24.774  -8.250  1.00  0.00     0.078 C 
ENDBRANCH  24  32
ENDBRANCH  18  19
ENDBRANCH  17  18
ENDBRANCH  15  17
ENDBRANCH   8  14
ENDBRANCH   1   8
TORSDOF 10
ENDMDL
MODEL 133
REMARK VINA RESULT:    -7.575      6.086      9.223
REMARK INTER + INTRA:         -13.052
REMARK INTER:                 -13.090
REMARK INTRA:                   0.039
REMARK UNBOUND:                -1.048
REMARK  10 active torsions:
REMARK  status: ('A' for Active; 'I' for Inactive)
REMARK   1   A    between atoms:  C27_1   and   C6_8  
REMARK   2   A    between atoms:  C6_8    and   C5_9  
REMARK   3   A    between atoms:  C5_9    and   C3_12 
REMARK   4   A    between atoms:  C6_8    and   N7_14 
REMARK   5   A    between atoms:  C8_15   and  C10_17 
REMARK   6   A    between atoms: C10_17   and  O11_18 
REMARK   7   A    between atoms: O11_18   and  C12_19 
REMARK   8   A    between atoms: C13_20   and  C14_25 
REMARK   9   A    between atoms: C14_25   and  N15_26 
REMARK   10  A    between atoms: C24_24   and  O25_32 
ROOT
ATOM      1 C27  MOL A   1      -0.466 -20.714  -8.434  1.00  0.00    -0.024 A 
ATOM      2 C28  MOL A   1      -0.439 -19.638  -7.529  1.00  0.00    -0.057 A 
ATOM      3 C29  MOL A   1      -1.620 -18.965  -7.194  1.00  0.00    -0.061 A 
ATOM      4 C30  MOL A   1      -2.836 -19.360  -7.758  1.00  0.00    -0.048 A 
ATOM      5 C31  MOL A   1      -2.876 -20.431  -8.658  1.00  0.00     0.018 A 
ATOM      6 Br32 MOL A   1      -4.545 -20.985  -9.413  1.00  0.00    -0.051 Br
ATOM      7 C33  MOL A   1      -1.698 -21.102  -8.999  1.00  0.00    -0.043 A 
ENDROOT
BRANCH   1   8
ATOM      8  C6  MOL A   1       0.825 -21.389  -8.846  1.00  0.00     0.063 C 
BRANCH   8   9
ATOM      9  C5  MOL A   1       0.687 -22.916  -8.716  1.00  0.00     0.051 C 
BRANCH   9  12
ATOM     10  C1  MOL A   1      -1.094 -24.614 -11.736  1.00  0.00     0.006 C 
ATOM     11  N2  MOL A   1      -0.845 -23.991 -10.444  1.00  0.00    -0.359 N 
ATOM     12  C3  MOL A   1       0.464 -23.565 -10.051  1.00  0.00     0.222 C 
ATOM     13  O4  MOL A   1       1.442 -23.729 -10.830  1.00  0.00    -0.275 OA
ENDBRANCH   9  12
ENDBRANCH   8   9
BRANCH   8  14
ATOM     14  N7  MOL A   1       1.939 -20.899  -8.027  1.00  0.00    -0.346 N 
ATOM     15  C8  MOL A   1       3.306 -21.085  -8.398  1.00  0.00     0.258 C 
ATOM     16  O9  MOL A   1       3.599 -21.698  -9.459  1.00  0.00    -0.271 OA
BRANCH  15  17
ATOM     17 C10  MOL A   1       4.406 -20.541  -7.536  1.00  0.00     0.167 C 
BRANCH  17  18
ATOM     18 O11  MOL A   1       4.423 -19.117  -7.589  1.00  0.00    -0.480 OA
BRANCH  18  19
ATOM     19 C12  MOL A   1       5.600 -18.397  -7.812  1.00  0.00     0.166 A 
ATOM     20 C13  MOL A   1       6.778 -19.041  -8.255  1.00  0.00     0.012 A 
ATOM     21 C21  MOL A   1       7.915 -18.267  -8.542  1.00  0.00    -0.054 A 
ATOM     22 C22  MOL A   1       7.900 -16.886  -8.347  1.00  0.00    -0.058 A 
ATOM     23 C23  MOL A   1       6.752 -16.259  -7.862  1.00  0.00    -0.016 A 
ATOM     24 C24  MOL A   1       5.594 -17.011  -7.586  1.00  0.00     0.161 A 
BRANCH  20  25
ATOM     25 C14  MOL A   1       6.849 -20.542  -8.427  1.00  0.00     0.028 C 
BRANCH  25  26
ATOM     26 N15  MOL A   1       7.563 -20.885  -9.673  1.00  0.00    -0.287 NA
ATOM     27 C16  MOL A   1       6.666 -20.847 -10.840  1.00  0.00     0.064 C 
ATOM     28 C17  MOL A   1       6.782 -22.340 -11.071  1.00  0.00     0.272 C 
ATOM     29 F18  MOL A   1       7.432 -22.672 -12.247  1.00  0.00    -0.204 F 
ATOM     30 F19  MOL A   1       5.597 -23.030 -10.871  1.00  0.00    -0.204 F 
ATOM     31 C20  MOL A   1       7.691 -22.341  -9.858  1.00  0.00     0.064 C 
ENDBRANCH  25  26
ENDBRANCH  20  25
BRANCH  24  32
ATOM     32 O25  MOL A   1       4.421 -16.419  -7.096  1.00  0.00    -0.493 OA
ATOM     33 C26  MOL A   1       4.389 -15.309  -6.205  1.00  0.00     0.078 C 
ENDBRANCH  24  32
ENDBRANCH  18  19
ENDBRANCH  17  18
ENDBRANCH  15  17
ENDBRANCH   8  14
ENDBRANCH   1   8
TORSDOF 10
ENDMDL
MODEL 134
REMARK VINA RESULT:    -7.571      4.987      9.963
REMARK INTER + INTRA:         -13.045
REMARK INTER:                 -11.950
REMARK INTRA:                  -1.095
REMARK UNBOUND:                -1.048
REMARK  10 active torsions:
REMARK  status: ('A' for Active; 'I' for Inactive)
REMARK   1   A    between atoms:  C27_1   and   C6_8  
REMARK   2   A    between atoms:  C6_8    and   C5_9  
REMARK   3   A    between atoms:  C5_9    and   C3_12 
REMARK   4   A    between atoms:  C6_8    and   N7_14 
REMARK   5   A    between atoms:  C8_15   and  C10_17 
REMARK   6   A    between atoms: C10_17   and  O11_18 
REMARK   7   A    between atoms: O11_18   and  C12_19 
REMARK   8   A    between atoms: C13_20   and  C14_25 
REMARK   9   A    between atoms: C14_25   and  N15_26 
REMARK   10  A    between atoms: C24_24   and  O25_32 
ROOT
ATOM      1 C27  MOL A   1       6.842 -16.938 -10.350  1.00  0.00    -0.024 A 
ATOM      2 C28  MOL A   1       7.150 -17.597 -11.554  1.00  0.00    -0.057 A 
ATOM      3 C29  MOL A   1       6.742 -17.059 -12.779  1.00  0.00    -0.061 A 
ATOM      4 C30  MOL A   1       6.024 -15.861 -12.815  1.00  0.00    -0.048 A 
ATOM      5 C31  MOL A   1       5.713 -15.194 -11.624  1.00  0.00     0.018 A 
ATOM      6 Br32 MOL A   1       4.749 -13.542 -11.675  1.00  0.00    -0.051 Br
ATOM      7 C33  MOL A   1       6.115 -15.731 -10.397  1.00  0.00    -0.043 A 
ENDROOT
BRANCH   1   8
ATOM      8  C6  MOL A   1       7.223 -17.564  -9.025  1.00  0.00     0.063 C 
BRANCH   8   9
ATOM      9  C5  MOL A   1       7.046 -16.541  -7.889  1.00  0.00     0.051 C 
BRANCH   9  12
ATOM     10  C1  MOL A   1       3.785 -15.581  -5.986  1.00  0.00     0.006 C 
ATOM     11  N2  MOL A   1       5.107 -15.517  -6.593  1.00  0.00    -0.359 N 
ATOM     12  C3  MOL A   1       5.685 -16.642  -7.263  1.00  0.00     0.222 C 
ATOM     13  O4  MOL A   1       5.050 -17.730  -7.335  1.00  0.00    -0.275 OA
ENDBRANCH   9  12
ENDBRANCH   8   9
BRANCH   8  14
ATOM     14  N7  MOL A   1       8.606 -18.050  -9.072  1.00  0.00    -0.346 N 
ATOM     15  C8  MOL A   1       8.972 -19.369  -8.661  1.00  0.00     0.258 C 
ATOM     16  O9  MOL A   1       8.097 -20.165  -8.228  1.00  0.00    -0.271 OA
BRANCH  15  17
ATOM     17 C10  MOL A   1      10.398 -19.824  -8.754  1.00  0.00     0.167 C 
BRANCH  17  18
ATOM     18 O11  MOL A   1      10.686 -20.774  -7.731  1.00  0.00    -0.480 OA
BRANCH  18  19
ATOM     19 C12  MOL A   1      11.755 -21.668  -7.830  1.00  0.00     0.166 A 
ATOM     20 C13  MOL A   1      13.023 -21.355  -7.287  1.00  0.00     0.012 A 
ATOM     21 C21  MOL A   1      14.047 -22.315  -7.340  1.00  0.00    -0.054 A 
ATOM     22 C22  MOL A   1      13.833 -23.545  -7.962  1.00  0.00    -0.058 A 
ATOM     23 C23  MOL A   1      12.597 -23.832  -8.541  1.00  0.00    -0.016 A 
ATOM     24 C24  MOL A   1      11.550 -22.894  -8.483  1.00  0.00     0.161 A 
BRANCH  20  25
ATOM     25 C14  MOL A   1      13.308 -20.012  -6.653  1.00  0.00     0.028 C 
BRANCH  25  26
ATOM     26 N15  MOL A   1      14.472 -19.372  -7.299  1.00  0.00    -0.287 NA
ATOM     27 C16  MOL A   1      14.676 -17.998  -6.811  1.00  0.00     0.064 C 
ATOM     28 C17  MOL A   1      14.353 -17.392  -8.162  1.00  0.00     0.272 C 
ATOM     29 F18  MOL A   1      15.433 -16.772  -8.766  1.00  0.00    -0.204 F 
ATOM     30 F19  MOL A   1      13.194 -16.633  -8.169  1.00  0.00    -0.204 F 
ATOM     31 C20  MOL A   1      14.139 -18.820  -8.623  1.00  0.00     0.064 C 
ENDBRANCH  25  26
ENDBRANCH  20  25
BRANCH  24  32
ATOM     32 O25  MOL A   1      10.293 -23.143  -9.054  1.00  0.00    -0.493 OA
ATOM     33 C26  MOL A   1      10.014 -24.211  -9.953  1.00  0.00     0.078 C 
ENDBRANCH  24  32
ENDBRANCH  18  19
ENDBRANCH  17  18
ENDBRANCH  15  17
ENDBRANCH   8  14
ENDBRANCH   1   8
TORSDOF 10
ENDMDL
MODEL 135
REMARK VINA RESULT:    -7.569      5.582     10.244
REMARK INTER + INTRA:         -13.042
REMARK INTER:                 -11.856
REMARK INTRA:                  -1.185
REMARK UNBOUND:                -1.048
REMARK  10 active torsions:
REMARK  status: ('A' for Active; 'I' for Inactive)
REMARK   1   A    between atoms:  C27_1   and   C6_8  
REMARK   2   A    between atoms:  C6_8    and   C5_9  
REMARK   3   A    between atoms:  C5_9    and   C3_12 
REMARK   4   A    between atoms:  C6_8    and   N7_14 
REMARK   5   A    between atoms:  C8_15   and  C10_17 
REMARK   6   A    between atoms: C10_17   and  O11_18 
REMARK   7   A    between atoms: O11_18   and  C12_19 
REMARK   8   A    between atoms: C13_20   and  C14_25 
REMARK   9   A    between atoms: C14_25   and  N15_26 
REMARK   10  A    between atoms: C24_24   and  O25_32 
ROOT
ATOM      1 C27  MOL A   1       8.332 -18.110  -9.248  1.00  0.00    -0.024 A 
ATOM      2 C28  MOL A   1       8.227 -17.525 -10.523  1.00  0.00    -0.057 A 
ATOM      3 C29  MOL A   1       7.213 -16.601 -10.796  1.00  0.00    -0.061 A 
ATOM      4 C30  MOL A   1       6.296 -16.252  -9.801  1.00  0.00    -0.048 A 
ATOM      5 C31  MOL A   1       6.391 -16.824  -8.528  1.00  0.00     0.018 A 
ATOM      6 Br32 MOL A   1       5.148 -16.329  -7.160  1.00  0.00    -0.051 Br
ATOM      7 C33  MOL A   1       7.400 -17.752  -8.253  1.00  0.00    -0.043 A 
ENDROOT
BRANCH   1   8
ATOM      8  C6  MOL A   1       9.386 -19.163  -8.982  1.00  0.00     0.063 C 
BRANCH   8   9
ATOM      9  C5  MOL A   1       8.770 -20.342  -8.208  1.00  0.00     0.051 C 
BRANCH   9  12
ATOM     10  C1  MOL A   1       6.758 -22.642 -10.624  1.00  0.00     0.006 C 
ATOM     11  N2  MOL A   1       7.124 -21.557  -9.724  1.00  0.00    -0.359 N 
ATOM     12  C3  MOL A   1       8.421 -21.480  -9.123  1.00  0.00     0.222 C 
ATOM     13  O4  MOL A   1       9.282 -22.369  -9.362  1.00  0.00    -0.275 OA
ENDBRANCH   9  12
ENDBRANCH   8   9
BRANCH   8  14
ATOM     14  N7  MOL A   1      10.507 -18.583  -8.235  1.00  0.00    -0.346 N 
ATOM     15  C8  MOL A   1      11.775 -19.233  -8.123  1.00  0.00     0.258 C 
ATOM     16  O9  MOL A   1      11.966 -20.352  -8.668  1.00  0.00    -0.271 OA
BRANCH  15  17
ATOM     17 C10  MOL A   1      12.896 -18.583  -7.368  1.00  0.00     0.167 C 
BRANCH  17  18
ATOM     18 O11  MOL A   1      14.141 -18.823  -8.019  1.00  0.00    -0.480 OA
BRANCH  18  19
ATOM     19 C12  MOL A   1      15.355 -18.810  -7.326  1.00  0.00     0.166 A 
ATOM     20 C13  MOL A   1      16.172 -17.657  -7.304  1.00  0.00     0.012 A 
ATOM     21 C21  MOL A   1      17.344 -17.662  -6.530  1.00  0.00    -0.054 A 
ATOM     22 C22  MOL A   1      17.725 -18.806  -5.829  1.00  0.00    -0.058 A 
ATOM     23 C23  MOL A   1      16.942 -19.960  -5.892  1.00  0.00    -0.016 A 
ATOM     24 C24  MOL A   1      15.753 -19.972  -6.645  1.00  0.00     0.161 A 
BRANCH  20  25
ATOM     25 C14  MOL A   1      15.820 -16.416  -8.095  1.00  0.00     0.028 C 
BRANCH  25  26
ATOM     26 N15  MOL A   1      15.657 -15.258  -7.191  1.00  0.00    -0.287 NA
ATOM     27 C16  MOL A   1      14.806 -15.589  -6.036  1.00  0.00     0.064 C 
ATOM     28 C17  MOL A   1      13.712 -14.636  -6.475  1.00  0.00     0.272 C 
ATOM     29 F18  MOL A   1      13.538 -13.559  -5.624  1.00  0.00    -0.204 F 
ATOM     30 F19  MOL A   1      12.532 -15.268  -6.830  1.00  0.00    -0.204 F 
ATOM     31 C20  MOL A   1      14.611 -14.332  -7.658  1.00  0.00     0.064 C 
ENDBRANCH  25  26
ENDBRANCH  20  25
BRANCH  24  32
ATOM     32 O25  MOL A   1      14.940 -21.111  -6.735  1.00  0.00    -0.493 OA
ATOM     33 C26  MOL A   1      15.102 -22.142  -7.702  1.00  0.00     0.078 C 
ENDBRANCH  24  32
ENDBRANCH  18  19
ENDBRANCH  17  18
ENDBRANCH  15  17
ENDBRANCH   8  14
ENDBRANCH   1   8
TORSDOF 10
ENDMDL
MODEL 136
REMARK VINA RESULT:    -7.569      7.563     10.767
REMARK INTER + INTRA:         -13.042
REMARK INTER:                 -11.680
REMARK INTRA:                  -1.362
REMARK UNBOUND:                -1.048
REMARK  10 active torsions:
REMARK  status: ('A' for Active; 'I' for Inactive)
REMARK   1   A    between atoms:  C27_1   and   C6_8  
REMARK   2   A    between atoms:  C6_8    and   C5_9  
REMARK   3   A    between atoms:  C5_9    and   C3_12 
REMARK   4   A    between atoms:  C6_8    and   N7_14 
REMARK   5   A    between atoms:  C8_15   and  C10_17 
REMARK   6   A    between atoms: C10_17   and  O11_18 
REMARK   7   A    between atoms: O11_18   and  C12_19 
REMARK   8   A    between atoms: C13_20   and  C14_25 
REMARK   9   A    between atoms: C14_25   and  N15_26 
REMARK   10  A    between atoms: C24_24   and  O25_32 
ROOT
ATOM      1 C27  MOL A   1       5.838 -20.990  -8.666  1.00  0.00    -0.024 A 
ATOM      2 C28  MOL A   1       5.583 -20.949  -7.283  1.00  0.00    -0.057 A 
ATOM      3 C29  MOL A   1       4.358 -21.395  -6.776  1.00  0.00    -0.061 A 
ATOM      4 C30  MOL A   1       3.377 -21.886  -7.642  1.00  0.00    -0.048 A 
ATOM      5 C31  MOL A   1       3.619 -21.936  -9.019  1.00  0.00     0.018 A 
ATOM      6 Br32 MOL A   1       2.285 -22.629 -10.202  1.00  0.00    -0.051 Br
ATOM      7 C33  MOL A   1       4.841 -21.485  -9.531  1.00  0.00    -0.043 A 
ENDROOT
BRANCH   1   8
ATOM      8  C6  MOL A   1       7.136 -20.438  -9.214  1.00  0.00     0.063 C 
BRANCH   8   9
ATOM      9  C5  MOL A   1       7.463 -21.101 -10.564  1.00  0.00     0.051 C 
BRANCH   9  12
ATOM     10  C1  MOL A   1       9.223 -24.438  -9.593  1.00  0.00     0.006 C 
ATOM     11  N2  MOL A   1       8.225 -23.388  -9.743  1.00  0.00    -0.359 N 
ATOM     12  C3  MOL A   1       8.518 -22.160 -10.416  1.00  0.00     0.222 C 
ATOM     13  O4  MOL A   1       9.667 -21.959 -10.895  1.00  0.00    -0.275 OA
ENDBRANCH   9  12
ENDBRANCH   8   9
BRANCH   8  14
ATOM     14  N7  MOL A   1       8.225 -20.655  -8.255  1.00  0.00    -0.346 N 
ATOM     15  C8  MOL A   1       9.236 -19.676  -8.005  1.00  0.00     0.258 C 
ATOM     16  O9  MOL A   1       9.224 -18.579  -8.623  1.00  0.00    -0.271 OA
BRANCH  15  17
ATOM     17 C10  MOL A   1      10.312 -19.938  -6.994  1.00  0.00     0.167 C 
BRANCH  17  18
ATOM     18 O11  MOL A   1      11.587 -20.006  -7.629  1.00  0.00    -0.480 OA
BRANCH  18  19
ATOM     19 C12  MOL A   1      12.778 -19.821  -6.922  1.00  0.00     0.166 A 
ATOM     20 C13  MOL A   1      13.367 -20.879  -6.192  1.00  0.00     0.012 A 
ATOM     21 C21  MOL A   1      14.605 -20.671  -5.562  1.00  0.00    -0.054 A 
ATOM     22 C22  MOL A   1      15.224 -19.422  -5.614  1.00  0.00    -0.058 A 
ATOM     23 C23  MOL A   1      14.617 -18.365  -6.292  1.00  0.00    -0.016 A 
ATOM     24 C24  MOL A   1      13.387 -18.556  -6.949  1.00  0.00     0.161 A 
BRANCH  20  25
ATOM     25 C14  MOL A   1      12.699 -22.231  -6.069  1.00  0.00     0.028 C 
BRANCH  25  26
ATOM     26 N15  MOL A   1      13.391 -23.227  -6.912  1.00  0.00    -0.287 NA
ATOM     27 C16  MOL A   1      12.535 -23.688  -8.019  1.00  0.00     0.064 C 
ATOM     28 C17  MOL A   1      12.456 -25.098  -7.466  1.00  0.00     0.272 C 
ATOM     29 F18  MOL A   1      13.084 -26.042  -8.260  1.00  0.00    -0.204 F 
ATOM     30 F19  MOL A   1      11.185 -25.466  -7.056  1.00  0.00    -0.204 F 
ATOM     31 C20  MOL A   1      13.327 -24.582  -6.338  1.00  0.00     0.064 C 
ENDBRANCH  25  26
ENDBRANCH  20  25
BRANCH  24  32
ATOM     32 O25  MOL A   1      12.743 -17.520  -7.641  1.00  0.00    -0.493 OA
ATOM     33 C26  MOL A   1      12.142 -16.388  -7.020  1.00  0.00     0.078 C 
ENDBRANCH  24  32
ENDBRANCH  18  19
ENDBRANCH  17  18
ENDBRANCH  15  17
ENDBRANCH   8  14
ENDBRANCH   1   8
TORSDOF 10
ENDMDL
MODEL 137
REMARK VINA RESULT:    -7.558      5.950     10.798
REMARK INTER + INTRA:         -13.025
REMARK INTER:                 -11.843
REMARK INTRA:                  -1.181
REMARK UNBOUND:                -1.048
REMARK  10 active torsions:
REMARK  status: ('A' for Active; 'I' for Inactive)
REMARK   1   A    between atoms:  C27_1   and   C6_8  
REMARK   2   A    between atoms:  C6_8    and   C5_9  
REMARK   3   A    between atoms:  C5_9    and   C3_12 
REMARK   4   A    between atoms:  C6_8    and   N7_14 
REMARK   5   A    between atoms:  C8_15   and  C10_17 
REMARK   6   A    between atoms: C10_17   and  O11_18 
REMARK   7   A    between atoms: O11_18   and  C12_19 
REMARK   8   A    between atoms: C13_20   and  C14_25 
REMARK   9   A    between atoms: C14_25   and  N15_26 
REMARK   10  A    between atoms: C24_24   and  O25_32 
ROOT
ATOM      1 C27  MOL A   1       8.440 -17.349  -8.983  1.00  0.00    -0.024 A 
ATOM      2 C28  MOL A   1       8.178 -16.961 -10.310  1.00  0.00    -0.057 A 
ATOM      3 C29  MOL A   1       6.951 -16.381 -10.648  1.00  0.00    -0.061 A 
ATOM      4 C30  MOL A   1       5.975 -16.183  -9.667  1.00  0.00    -0.048 A 
ATOM      5 C31  MOL A   1       6.224 -16.562  -8.343  1.00  0.00     0.018 A 
ATOM      6 Br32 MOL A   1       4.895 -16.272  -6.997  1.00  0.00    -0.051 Br
ATOM      7 C33  MOL A   1       7.448 -17.147  -8.003  1.00  0.00    -0.043 A 
ENDROOT
BRANCH   1   8
ATOM      8  C6  MOL A   1       9.742 -18.042  -8.640  1.00  0.00     0.063 C 
BRANCH   8   9
ATOM      9  C5  MOL A   1       9.457 -19.361  -7.900  1.00  0.00     0.051 C 
BRANCH   9  12
ATOM     10  C1  MOL A   1       7.415 -22.234  -9.560  1.00  0.00     0.006 C 
ATOM     11  N2  MOL A   1       7.838 -21.179  -8.649  1.00  0.00    -0.359 N 
ATOM     12  C3  MOL A   1       9.054 -20.451  -8.851  1.00  0.00     0.222 C 
ATOM     13  O4  MOL A   1       9.796 -20.718  -9.836  1.00  0.00    -0.275 OA
ENDBRANCH   9  12
ENDBRANCH   8   9
BRANCH   8  14
ATOM     14  N7  MOL A   1      10.585 -17.163  -7.823  1.00  0.00    -0.346 N 
ATOM     15  C8  MOL A   1      12.013 -17.232  -7.843  1.00  0.00     0.258 C 
ATOM     16  O9  MOL A   1      12.598 -18.076  -8.572  1.00  0.00    -0.271 OA
BRANCH  15  17
ATOM     17 C10  MOL A   1      12.828 -16.291  -7.007  1.00  0.00     0.167 C 
BRANCH  17  18
ATOM     18 O11  MOL A   1      13.916 -16.982  -6.397  1.00  0.00    -0.480 OA
BRANCH  18  19
ATOM     19 C12  MOL A   1      15.152 -16.368  -6.173  1.00  0.00     0.166 A 
ATOM     20 C13  MOL A   1      16.150 -16.347  -7.174  1.00  0.00     0.012 A 
ATOM     21 C21  MOL A   1      17.346 -15.650  -6.934  1.00  0.00    -0.054 A 
ATOM     22 C22  MOL A   1      17.569 -15.027  -5.706  1.00  0.00    -0.058 A 
ATOM     23 C23  MOL A   1      16.603 -15.092  -4.701  1.00  0.00    -0.016 A 
ATOM     24 C24  MOL A   1      15.388 -15.767  -4.926  1.00  0.00     0.161 A 
BRANCH  20  25
ATOM     25 C14  MOL A   1      15.966 -17.056  -8.497  1.00  0.00     0.028 C 
BRANCH  25  26
ATOM     26 N15  MOL A   1      17.232 -17.685  -8.925  1.00  0.00    -0.287 NA
ATOM     27 C16  MOL A   1      17.747 -17.079 -10.165  1.00  0.00     0.064 C 
ATOM     28 C17  MOL A   1      17.542 -18.353 -10.960  1.00  0.00     0.272 C 
ATOM     29 F18  MOL A   1      18.722 -18.940 -11.383  1.00  0.00    -0.204 F 
ATOM     30 F19  MOL A   1      16.582 -18.244 -11.953  1.00  0.00    -0.204 F 
ATOM     31 C20  MOL A   1      17.007 -18.938  -9.667  1.00  0.00     0.064 C 
ENDBRANCH  25  26
ENDBRANCH  20  25
BRANCH  24  32
ATOM     32 O25  MOL A   1      14.392 -15.856  -3.942  1.00  0.00    -0.493 OA
ATOM     33 C26  MOL A   1      13.433 -14.839  -3.673  1.00  0.00     0.078 C 
ENDBRANCH  24  32
ENDBRANCH  18  19
ENDBRANCH  17  18
ENDBRANCH  15  17
ENDBRANCH   8  14
ENDBRANCH   1   8
TORSDOF 10
ENDMDL
MODEL 138
REMARK VINA RESULT:    -7.557      5.236      9.909
REMARK INTER + INTRA:         -13.023
REMARK INTER:                 -11.909
REMARK INTRA:                  -1.114
REMARK UNBOUND:                -1.048
REMARK  10 active torsions:
REMARK  status: ('A' for Active; 'I' for Inactive)
REMARK   1   A    between atoms:  C27_1   and   C6_8  
REMARK   2   A    between atoms:  C6_8    and   C5_9  
REMARK   3   A    between atoms:  C5_9    and   C3_12 
REMARK   4   A    between atoms:  C6_8    and   N7_14 
REMARK   5   A    between atoms:  C8_15   and  C10_17 
REMARK   6   A    between atoms: C10_17   and  O11_18 
REMARK   7   A    between atoms: O11_18   and  C12_19 
REMARK   8   A    between atoms: C13_20   and  C14_25 
REMARK   9   A    between atoms: C14_25   and  N15_26 
REMARK   10  A    between atoms: C24_24   and  O25_32 
ROOT
ATOM      1 C27  MOL A   1       7.798 -18.107  -9.174  1.00  0.00    -0.024 A 
ATOM      2 C28  MOL A   1       7.842 -17.443 -10.413  1.00  0.00    -0.057 A 
ATOM      3 C29  MOL A   1       6.964 -16.388 -10.683  1.00  0.00    -0.061 A 
ATOM      4 C30  MOL A   1       6.033 -15.987  -9.721  1.00  0.00    -0.048 A 
ATOM      5 C31  MOL A   1       5.980 -16.637  -8.482  1.00  0.00     0.018 A 
ATOM      6 Br32 MOL A   1       4.721 -16.073  -7.157  1.00  0.00    -0.051 Br
ATOM      7 C33  MOL A   1       6.854 -17.695  -8.211  1.00  0.00    -0.043 A 
ENDROOT
BRANCH   1   8
ATOM      8  C6  MOL A   1       8.702 -19.293  -8.917  1.00  0.00     0.063 C 
BRANCH   8   9
ATOM      9  C5  MOL A   1       7.903 -20.431  -8.256  1.00  0.00     0.051 C 
BRANCH   9  12
ATOM     10  C1  MOL A   1       4.864 -21.942 -10.166  1.00  0.00     0.006 C 
ATOM     11  N2  MOL A   1       5.670 -21.216  -9.196  1.00  0.00    -0.359 N 
ATOM     12  C3  MOL A   1       7.100 -21.199  -9.266  1.00  0.00     0.222 C 
ATOM     13  O4  MOL A   1       7.696 -21.829 -10.182  1.00  0.00    -0.275 OA
ENDBRANCH   9  12
ENDBRANCH   8   9
BRANCH   8  14
ATOM     14  N7  MOL A   1       9.833 -18.896  -8.072  1.00  0.00    -0.346 N 
ATOM     15  C8  MOL A   1      11.079 -18.453  -8.612  1.00  0.00     0.258 C 
ATOM     16  O9  MOL A   1      11.247 -18.400  -9.860  1.00  0.00    -0.271 OA
BRANCH  15  17
ATOM     17 C10  MOL A   1      12.195 -18.035  -7.702  1.00  0.00     0.167 C 
BRANCH  17  18
ATOM     18 O11  MOL A   1      13.361 -18.816  -7.950  1.00  0.00    -0.480 OA
BRANCH  18  19
ATOM     19 C12  MOL A   1      14.254 -19.158  -6.931  1.00  0.00     0.166 A 
ATOM     20 C13  MOL A   1      15.325 -18.304  -6.580  1.00  0.00     0.012 A 
ATOM     21 C21  MOL A   1      16.151 -18.650  -5.497  1.00  0.00    -0.054 A 
ATOM     22 C22  MOL A   1      15.949 -19.845  -4.806  1.00  0.00    -0.058 A 
ATOM     23 C23  MOL A   1      14.923 -20.710  -5.187  1.00  0.00    -0.016 A 
ATOM     24 C24  MOL A   1      14.070 -20.376  -6.255  1.00  0.00     0.161 A 
BRANCH  20  25
ATOM     25 C14  MOL A   1      15.607 -17.027  -7.340  1.00  0.00     0.028 C 
BRANCH  25  26
ATOM     26 N15  MOL A   1      15.571 -15.866  -6.427  1.00  0.00    -0.287 NA
ATOM     27 C16  MOL A   1      14.438 -15.948  -5.490  1.00  0.00     0.064 C 
ATOM     28 C17  MOL A   1      13.757 -14.735  -6.092  1.00  0.00     0.272 C 
ATOM     29 F18  MOL A   1      13.700 -13.648  -5.238  1.00  0.00    -0.204 F 
ATOM     30 F19  MOL A   1      12.553 -15.023  -6.715  1.00  0.00    -0.204 F 
ATOM     31 C20  MOL A   1      14.934 -14.691  -7.048  1.00  0.00     0.064 C 
ENDBRANCH  25  26
ENDBRANCH  20  25
BRANCH  24  32
ATOM     32 O25  MOL A   1      13.028 -21.218  -6.670  1.00  0.00    -0.493 OA
ATOM     33 C26  MOL A   1      12.882 -22.576  -6.268  1.00  0.00     0.078 C 
ENDBRANCH  24  32
ENDBRANCH  18  19
ENDBRANCH  17  18
ENDBRANCH  15  17
ENDBRANCH   8  14
ENDBRANCH   1   8
TORSDOF 10
ENDMDL
MODEL 139
REMARK VINA RESULT:    -7.555      2.450      3.417
REMARK INTER + INTRA:         -13.020
REMARK INTER:                 -12.449
REMARK INTRA:                  -0.571
REMARK UNBOUND:                -1.048
REMARK  10 active torsions:
REMARK  status: ('A' for Active; 'I' for Inactive)
REMARK   1   A    between atoms:  C27_1   and   C6_8  
REMARK   2   A    between atoms:  C6_8    and   C5_9  
REMARK   3   A    between atoms:  C5_9    and   C3_12 
REMARK   4   A    between atoms:  C6_8    and   N7_14 
REMARK   5   A    between atoms:  C8_15   and  C10_17 
REMARK   6   A    between atoms: C10_17   and  O11_18 
REMARK   7   A    between atoms: O11_18   and  C12_19 
REMARK   8   A    between atoms: C13_20   and  C14_25 
REMARK   9   A    between atoms: C14_25   and  N15_26 
REMARK   10  A    between atoms: C24_24   and  O25_32 
ROOT
ATOM      1 C27  MOL A   1       8.990 -18.946 -10.153  1.00  0.00    -0.024 A 
ATOM      2 C28  MOL A   1       9.589 -18.946 -11.425  1.00  0.00    -0.057 A 
ATOM      3 C29  MOL A   1      10.945 -18.632 -11.569  1.00  0.00    -0.061 A 
ATOM      4 C30  MOL A   1      11.714 -18.315 -10.447  1.00  0.00    -0.048 A 
ATOM      5 C31  MOL A   1      11.131 -18.314  -9.174  1.00  0.00     0.018 A 
ATOM      6 Br32 MOL A   1      12.190 -17.901  -7.636  1.00  0.00    -0.051 Br
ATOM      7 C33  MOL A   1       9.775 -18.623  -9.027  1.00  0.00    -0.043 A 
ENDROOT
BRANCH   1   8
ATOM      8  C6  MOL A   1       7.507 -19.216 -10.014  1.00  0.00     0.063 C 
BRANCH   8   9
ATOM      9  C5  MOL A   1       7.155 -20.570 -10.655  1.00  0.00     0.051 C 
BRANCH   9  12
ATOM     10  C1  MOL A   1       9.055 -23.834  -9.699  1.00  0.00     0.006 C 
ATOM     11  N2  MOL A   1       8.514 -22.716 -10.458  1.00  0.00    -0.359 N 
ATOM     12  C3  MOL A   1       7.690 -21.717  -9.847  1.00  0.00     0.222 C 
ATOM     13  O4  MOL A   1       7.409 -21.794  -8.620  1.00  0.00    -0.275 OA
ENDBRANCH   9  12
ENDBRANCH   8   9
BRANCH   8  14
ATOM     14  N7  MOL A   1       6.734 -18.135 -10.633  1.00  0.00    -0.346 N 
ATOM     15  C8  MOL A   1       6.684 -16.814 -10.089  1.00  0.00     0.258 C 
ATOM     16  O9  MOL A   1       7.311 -16.540  -9.031  1.00  0.00    -0.271 OA
BRANCH  15  17
ATOM     17 C10  MOL A   1       5.899 -15.739 -10.777  1.00  0.00     0.167 C 
BRANCH  17  18
ATOM     18 O11  MOL A   1       5.454 -14.765  -9.836  1.00  0.00    -0.480 OA
BRANCH  18  19
ATOM     19 C12  MOL A   1       4.134 -14.724  -9.379  1.00  0.00     0.166 A 
ATOM     20 C13  MOL A   1       3.130 -14.043 -10.104  1.00  0.00     0.012 A 
ATOM     21 C21  MOL A   1       1.802 -14.094  -9.649  1.00  0.00    -0.054 A 
ATOM     22 C22  MOL A   1       1.483 -14.768  -8.470  1.00  0.00    -0.058 A 
ATOM     23 C23  MOL A   1       2.483 -15.398  -7.730  1.00  0.00    -0.016 A 
ATOM     24 C24  MOL A   1       3.818 -15.377  -8.176  1.00  0.00     0.161 A 
BRANCH  20  25
ATOM     25 C14  MOL A   1       3.447 -13.257 -11.357  1.00  0.00     0.028 C 
BRANCH  25  26
ATOM     26 N15  MOL A   1       3.223 -11.814 -11.131  1.00  0.00    -0.287 NA
ATOM     27 C16  MOL A   1       1.830 -11.431 -11.416  1.00  0.00     0.064 C 
ATOM     28 C17  MOL A   1       2.231 -10.571 -12.598  1.00  0.00     0.272 C 
ATOM     29 F18  MOL A   1       2.005  -9.219 -12.404  1.00  0.00    -0.204 F 
ATOM     30 F19  MOL A   1       1.771 -11.048 -13.815  1.00  0.00    -0.204 F 
ATOM     31 C20  MOL A   1       3.650 -10.999 -12.281  1.00  0.00     0.064 C 
ENDBRANCH  25  26
ENDBRANCH  20  25
BRANCH  24  32
ATOM     32 O25  MOL A   1       4.853 -15.996  -7.461  1.00  0.00    -0.493 OA
ATOM     33 C26  MOL A   1       4.801 -17.328  -6.960  1.00  0.00     0.078 C 
ENDBRANCH  24  32
ENDBRANCH  18  19
ENDBRANCH  17  18
ENDBRANCH  15  17
ENDBRANCH   8  14
ENDBRANCH   1   8
TORSDOF 10
ENDMDL
MODEL 140
REMARK VINA RESULT:    -7.554      5.976     10.434
REMARK INTER + INTRA:         -13.018
REMARK INTER:                 -11.790
REMARK INTRA:                  -1.228
REMARK UNBOUND:                -1.048
REMARK  10 active torsions:
REMARK  status: ('A' for Active; 'I' for Inactive)
REMARK   1   A    between atoms:  C27_1   and   C6_8  
REMARK   2   A    between atoms:  C6_8    and   C5_9  
REMARK   3   A    between atoms:  C5_9    and   C3_12 
REMARK   4   A    between atoms:  C6_8    and   N7_14 
REMARK   5   A    between atoms:  C8_15   and  C10_17 
REMARK   6   A    between atoms: C10_17   and  O11_18 
REMARK   7   A    between atoms: O11_18   and  C12_19 
REMARK   8   A    between atoms: C13_20   and  C14_25 
REMARK   9   A    between atoms: C14_25   and  N15_26 
REMARK   10  A    between atoms: C24_24   and  O25_32 
ROOT
ATOM      1 C27  MOL A   1       7.800 -17.839  -9.320  1.00  0.00    -0.024 A 
ATOM      2 C28  MOL A   1       7.710 -17.113 -10.522  1.00  0.00    -0.057 A 
ATOM      3 C29  MOL A   1       6.736 -16.121 -10.678  1.00  0.00    -0.061 A 
ATOM      4 C30  MOL A   1       5.844 -15.844  -9.638  1.00  0.00    -0.048 A 
ATOM      5 C31  MOL A   1       5.925 -16.556  -8.436  1.00  0.00     0.018 A 
ATOM      6 Br32 MOL A   1       4.718 -16.161  -7.006  1.00  0.00    -0.051 Br
ATOM      7 C33  MOL A   1       6.894 -17.552  -8.278  1.00  0.00    -0.043 A 
ENDROOT
BRANCH   1   8
ATOM      8  C6  MOL A   1       8.808 -18.959  -9.185  1.00  0.00     0.063 C 
BRANCH   8   9
ATOM      9  C5  MOL A   1       8.210 -20.111  -8.358  1.00  0.00     0.051 C 
BRANCH   9  12
ATOM     10  C1  MOL A   1       6.269 -22.514 -10.732  1.00  0.00     0.006 C 
ATOM     11  N2  MOL A   1       6.613 -21.384  -9.881  1.00  0.00    -0.359 N 
ATOM     12  C3  MOL A   1       7.880 -21.295  -9.221  1.00  0.00     0.222 C 
ATOM     13  O4  MOL A   1       8.733 -22.213  -9.363  1.00  0.00    -0.275 OA
ENDBRANCH   9  12
ENDBRANCH   8   9
BRANCH   8  14
ATOM     14  N7  MOL A   1      10.040 -18.462  -8.562  1.00  0.00    -0.346 N 
ATOM     15  C8  MOL A   1      11.292 -18.433  -9.251  1.00  0.00     0.258 C 
ATOM     16  O9  MOL A   1      11.375 -18.851 -10.436  1.00  0.00    -0.271 OA
BRANCH  15  17
ATOM     17 C10  MOL A   1      12.516 -17.890  -8.576  1.00  0.00     0.167 C 
BRANCH  17  18
ATOM     18 O11  MOL A   1      13.527 -18.892  -8.496  1.00  0.00    -0.480 OA
BRANCH  18  19
ATOM     19 C12  MOL A   1      13.817 -19.559  -7.302  1.00  0.00     0.166 A 
ATOM     20 C13  MOL A   1      14.748 -19.032  -6.378  1.00  0.00     0.012 A 
ATOM     21 C21  MOL A   1      14.950 -19.695  -5.156  1.00  0.00    -0.054 A 
ATOM     22 C22  MOL A   1      14.277 -20.884  -4.875  1.00  0.00    -0.058 A 
ATOM     23 C23  MOL A   1      13.396 -21.428  -5.810  1.00  0.00    -0.016 A 
ATOM     24 C24  MOL A   1      13.162 -20.772  -7.033  1.00  0.00     0.161 A 
BRANCH  20  25
ATOM     25 C14  MOL A   1      15.536 -17.775  -6.670  1.00  0.00     0.028 C 
BRANCH  25  26
ATOM     26 N15  MOL A   1      15.595 -16.913  -5.471  1.00  0.00    -0.287 NA
ATOM     27 C16  MOL A   1      15.646 -15.486  -5.831  1.00  0.00     0.064 C 
ATOM     28 C17  MOL A   1      17.049 -15.322  -5.281  1.00  0.00     0.272 C 
ATOM     29 F18  MOL A   1      17.118 -14.500  -4.170  1.00  0.00    -0.204 F 
ATOM     30 F19  MOL A   1      17.998 -15.037  -6.250  1.00  0.00    -0.204 F 
ATOM     31 C20  MOL A   1      16.964 -16.796  -4.938  1.00  0.00     0.064 C 
ENDBRANCH  25  26
ENDBRANCH  20  25
BRANCH  24  32
ATOM     32 O25  MOL A   1      12.286 -21.286  -7.999  1.00  0.00    -0.493 OA
ATOM     33 C26  MOL A   1      11.917 -22.657  -8.105  1.00  0.00     0.078 C 
ENDBRANCH  24  32
ENDBRANCH  18  19
ENDBRANCH  17  18
ENDBRANCH  15  17
ENDBRANCH   8  14
ENDBRANCH   1   8
TORSDOF 10
ENDMDL
MODEL 141
REMARK VINA RESULT:    -7.554      5.866     10.068
REMARK INTER + INTRA:         -13.018
REMARK INTER:                 -11.972
REMARK INTRA:                  -1.045
REMARK UNBOUND:                -1.048
REMARK  10 active torsions:
REMARK  status: ('A' for Active; 'I' for Inactive)
REMARK   1   A    between atoms:  C27_1   and   C6_8  
REMARK   2   A    between atoms:  C6_8    and   C5_9  
REMARK   3   A    between atoms:  C5_9    and   C3_12 
REMARK   4   A    between atoms:  C6_8    and   N7_14 
REMARK   5   A    between atoms:  C8_15   and  C10_17 
REMARK   6   A    between atoms: C10_17   and  O11_18 
REMARK   7   A    between atoms: O11_18   and  C12_19 
REMARK   8   A    between atoms: C13_20   and  C14_25 
REMARK   9   A    between atoms: C14_25   and  N15_26 
REMARK   10  A    between atoms: C24_24   and  O25_32 
ROOT
ATOM      1 C27  MOL A   1       7.961 -17.700 -10.439  1.00  0.00    -0.024 A 
ATOM      2 C28  MOL A   1       8.155 -18.266 -11.712  1.00  0.00    -0.057 A 
ATOM      3 C29  MOL A   1       7.482 -17.751 -12.826  1.00  0.00    -0.061 A 
ATOM      4 C30  MOL A   1       6.611 -16.668 -12.680  1.00  0.00    -0.048 A 
ATOM      5 C31  MOL A   1       6.412 -16.093 -11.420  1.00  0.00     0.018 A 
ATOM      6 Br32 MOL A   1       5.236 -14.597 -11.225  1.00  0.00    -0.051 Br
ATOM      7 C33  MOL A   1       7.079 -16.609 -10.304  1.00  0.00    -0.043 A 
ENDROOT
BRANCH   1   8
ATOM      8  C6  MOL A   1       8.636 -18.308  -9.229  1.00  0.00     0.063 C 
BRANCH   8   9
ATOM      9  C5  MOL A   1       7.579 -18.887  -8.272  1.00  0.00     0.051 C 
BRANCH   9  12
ATOM     10  C1  MOL A   1       7.878 -22.575  -9.491  1.00  0.00     0.006 C 
ATOM     11  N2  MOL A   1       8.204 -21.203  -9.130  1.00  0.00    -0.359 N 
ATOM     12  C3  MOL A   1       7.209 -20.294  -8.645  1.00  0.00     0.222 C 
ATOM     13  O4  MOL A   1       6.012 -20.671  -8.526  1.00  0.00    -0.275 OA
ENDBRANCH   9  12
ENDBRANCH   8   9
BRANCH   8  14
ATOM     14  N7  MOL A   1       9.456 -17.302  -8.545  1.00  0.00    -0.346 N 
ATOM     15  C8  MOL A   1      10.668 -17.632  -7.864  1.00  0.00     0.258 C 
ATOM     16  O9  MOL A   1      11.069 -18.826  -7.823  1.00  0.00    -0.271 OA
BRANCH  15  17
ATOM     17 C10  MOL A   1      11.483 -16.561  -7.203  1.00  0.00     0.167 C 
BRANCH  17  18
ATOM     18 O11  MOL A   1      12.689 -17.106  -6.673  1.00  0.00    -0.480 OA
BRANCH  18  19
ATOM     19 C12  MOL A   1      13.947 -16.645  -7.068  1.00  0.00     0.166 A 
ATOM     20 C13  MOL A   1      14.502 -15.469  -6.514  1.00  0.00     0.012 A 
ATOM     21 C21  MOL A   1      15.803 -15.085  -6.882  1.00  0.00    -0.054 A 
ATOM     22 C22  MOL A   1      16.522 -15.829  -7.817  1.00  0.00    -0.058 A 
ATOM     23 C23  MOL A   1      15.953 -16.961  -8.400  1.00  0.00    -0.016 A 
ATOM     24 C24  MOL A   1      14.660 -17.376  -8.033  1.00  0.00     0.161 A 
BRANCH  20  25
ATOM     25 C14  MOL A   1      13.732 -14.608  -5.537  1.00  0.00     0.028 C 
BRANCH  25  26
ATOM     26 N15  MOL A   1      14.623 -14.123  -4.464  1.00  0.00    -0.287 NA
ATOM     27 C16  MOL A   1      15.175 -15.236  -3.673  1.00  0.00     0.064 C 
ATOM     28 C17  MOL A   1      14.430 -14.813  -2.422  1.00  0.00     0.272 C 
ATOM     29 F18  MOL A   1      15.258 -14.376  -1.403  1.00  0.00    -0.204 F 
ATOM     30 F19  MOL A   1      13.468 -15.722  -2.013  1.00  0.00    -0.204 F 
ATOM     31 C20  MOL A   1      13.873 -13.689  -3.273  1.00  0.00     0.064 C 
ENDBRANCH  25  26
ENDBRANCH  20  25
BRANCH  24  32
ATOM     32 O25  MOL A   1      14.052 -18.508  -8.596  1.00  0.00    -0.493 OA
ATOM     33 C26  MOL A   1      14.027 -18.800  -9.989  1.00  0.00     0.078 C 
ENDBRANCH  24  32
ENDBRANCH  18  19
ENDBRANCH  17  18
ENDBRANCH  15  17
ENDBRANCH   8  14
ENDBRANCH   1   8
TORSDOF 10
ENDMDL
MODEL 142
REMARK VINA RESULT:    -7.551      4.469      8.061
REMARK INTER + INTRA:         -13.014
REMARK INTER:                 -11.943
REMARK INTRA:                  -1.071
REMARK UNBOUND:                -1.048
REMARK  10 active torsions:
REMARK  status: ('A' for Active; 'I' for Inactive)
REMARK   1   A    between atoms:  C27_1   and   C6_8  
REMARK   2   A    between atoms:  C6_8    and   C5_9  
REMARK   3   A    between atoms:  C5_9    and   C3_12 
REMARK   4   A    between atoms:  C6_8    and   N7_14 
REMARK   5   A    between atoms:  C8_15   and  C10_17 
REMARK   6   A    between atoms: C10_17   and  O11_18 
REMARK   7   A    between atoms: O11_18   and  C12_19 
REMARK   8   A    between atoms: C13_20   and  C14_25 
REMARK   9   A    between atoms: C14_25   and  N15_26 
REMARK   10  A    between atoms: C24_24   and  O25_32 
ROOT
ATOM      1 C27  MOL A   1       5.488 -15.181 -11.005  1.00  0.00    -0.024 A 
ATOM      2 C28  MOL A   1       4.504 -14.918 -10.035  1.00  0.00    -0.057 A 
ATOM      3 C29  MOL A   1       3.597 -13.868 -10.214  1.00  0.00    -0.061 A 
ATOM      4 C30  MOL A   1       3.664 -13.071 -11.361  1.00  0.00    -0.048 A 
ATOM      5 C31  MOL A   1       4.636 -13.324 -12.335  1.00  0.00     0.018 A 
ATOM      6 Br32 MOL A   1       4.713 -12.247 -13.914  1.00  0.00    -0.051 Br
ATOM      7 C33  MOL A   1       5.548 -14.370 -12.157  1.00  0.00    -0.043 A 
ENDROOT
BRANCH   1   8
ATOM      8  C6  MOL A   1       6.510 -16.272 -10.770  1.00  0.00     0.063 C 
BRANCH   8   9
ATOM      9  C5  MOL A   1       6.905 -16.922 -12.108  1.00  0.00     0.051 C 
BRANCH   9  12
ATOM     10  C1  MOL A   1       9.962 -19.227 -11.390  1.00  0.00     0.006 C 
ATOM     11  N2  MOL A   1       9.133 -18.051 -11.609  1.00  0.00    -0.359 N 
ATOM     12  C3  MOL A   1       7.735 -18.156 -11.897  1.00  0.00     0.222 C 
ATOM     13  O4  MOL A   1       7.188 -19.290 -11.973  1.00  0.00    -0.275 OA
ENDBRANCH   9  12
ENDBRANCH   8   9
BRANCH   8  14
ATOM     14  N7  MOL A   1       5.977 -17.277  -9.845  1.00  0.00    -0.346 N 
ATOM     15  C8  MOL A   1       6.705 -17.736  -8.704  1.00  0.00     0.258 C 
ATOM     16  O9  MOL A   1       7.856 -17.285  -8.462  1.00  0.00    -0.271 OA
BRANCH  15  17
ATOM     17 C10  MOL A   1       6.102 -18.746  -7.775  1.00  0.00     0.167 C 
BRANCH  17  18
ATOM     18 O11  MOL A   1       6.875 -19.944  -7.771  1.00  0.00    -0.480 OA
BRANCH  18  19
ATOM     19 C12  MOL A   1       6.797 -20.880  -8.806  1.00  0.00     0.166 A 
ATOM     20 C13  MOL A   1       5.550 -21.288  -9.331  1.00  0.00     0.012 A 
ATOM     21 C21  MOL A   1       5.522 -22.170 -10.424  1.00  0.00    -0.054 A 
ATOM     22 C22  MOL A   1       6.708 -22.677 -10.956  1.00  0.00    -0.058 A 
ATOM     23 C23  MOL A   1       7.936 -22.312 -10.404  1.00  0.00    -0.016 A 
ATOM     24 C24  MOL A   1       7.990 -21.414  -9.321  1.00  0.00     0.161 A 
BRANCH  20  25
ATOM     25 C14  MOL A   1       4.242 -20.802  -8.747  1.00  0.00     0.028 C 
BRANCH  25  26
ATOM     26 N15  MOL A   1       3.307 -21.931  -8.566  1.00  0.00    -0.287 NA
ATOM     27 C16  MOL A   1       1.988 -21.641  -9.154  1.00  0.00     0.064 C 
ATOM     28 C17  MOL A   1       1.303 -21.640  -7.801  1.00  0.00     0.272 C 
ATOM     29 F18  MOL A   1       0.409 -22.682  -7.630  1.00  0.00    -0.204 F 
ATOM     30 F19  MOL A   1       0.801 -20.403  -7.432  1.00  0.00    -0.204 F 
ATOM     31 C20  MOL A   1       2.680 -21.925  -7.233  1.00  0.00     0.064 C 
ENDBRANCH  25  26
ENDBRANCH  20  25
BRANCH  24  32
ATOM     32 O25  MOL A   1       9.203 -21.023  -8.737  1.00  0.00    -0.493 OA
ATOM     33 C26  MOL A   1      10.408 -21.778  -8.801  1.00  0.00     0.078 C 
ENDBRANCH  24  32
ENDBRANCH  18  19
ENDBRANCH  17  18
ENDBRANCH  15  17
ENDBRANCH   8  14
ENDBRANCH   1   8
TORSDOF 10
ENDMDL
MODEL 143
REMARK VINA RESULT:    -7.551      5.711     10.695
REMARK INTER + INTRA:         -13.014
REMARK INTER:                 -11.732
REMARK INTRA:                  -1.281
REMARK UNBOUND:                -1.048
REMARK  10 active torsions:
REMARK  status: ('A' for Active; 'I' for Inactive)
REMARK   1   A    between atoms:  C27_1   and   C6_8  
REMARK   2   A    between atoms:  C6_8    and   C5_9  
REMARK   3   A    between atoms:  C5_9    and   C3_12 
REMARK   4   A    between atoms:  C6_8    and   N7_14 
REMARK   5   A    between atoms:  C8_15   and  C10_17 
REMARK   6   A    between atoms: C10_17   and  O11_18 
REMARK   7   A    between atoms: O11_18   and  C12_19 
REMARK   8   A    between atoms: C13_20   and  C14_25 
REMARK   9   A    between atoms: C14_25   and  N15_26 
REMARK   10  A    between atoms: C24_24   and  O25_32 
ROOT
ATOM      1 C27  MOL A   1       8.050 -19.693  -9.384  1.00  0.00    -0.024 A 
ATOM      2 C28  MOL A   1       6.731 -19.765  -8.901  1.00  0.00    -0.057 A 
ATOM      3 C29  MOL A   1       6.133 -21.006  -8.657  1.00  0.00    -0.061 A 
ATOM      4 C30  MOL A   1       6.844 -22.185  -8.892  1.00  0.00    -0.048 A 
ATOM      5 C31  MOL A   1       8.158 -22.128  -9.370  1.00  0.00     0.018 A 
ATOM      6 Br32 MOL A   1       9.139 -23.743  -9.671  1.00  0.00    -0.051 Br
ATOM      7 C33  MOL A   1       8.758 -20.889  -9.620  1.00  0.00    -0.043 A 
ENDROOT
BRANCH   1   8
ATOM      8  C6  MOL A   1       8.664 -18.350  -9.714  1.00  0.00     0.063 C 
BRANCH   8   9
ATOM      9  C5  MOL A   1       8.020 -17.775 -10.989  1.00  0.00     0.051 C 
BRANCH   9  12
ATOM     10  C1  MOL A   1       5.405 -14.922 -11.434  1.00  0.00     0.006 C 
ATOM     11  N2  MOL A   1       6.342 -16.001 -11.713  1.00  0.00    -0.359 N 
ATOM     12  C3  MOL A   1       7.068 -16.658 -10.669  1.00  0.00     0.222 C 
ATOM     13  O4  MOL A   1       6.911 -16.304  -9.469  1.00  0.00    -0.275 OA
ENDBRANCH   9  12
ENDBRANCH   8   9
BRANCH   8  14
ATOM     14  N7  MOL A   1      10.115 -18.482  -9.883  1.00  0.00    -0.346 N 
ATOM     15  C8  MOL A   1      11.052 -17.878  -8.988  1.00  0.00     0.258 C 
ATOM     16  O9  MOL A   1      10.647 -17.192  -8.013  1.00  0.00    -0.271 OA
BRANCH  15  17
ATOM     17 C10  MOL A   1      12.525 -18.067  -9.192  1.00  0.00     0.167 C 
BRANCH  17  18
ATOM     18 O11  MOL A   1      13.240 -17.727  -8.007  1.00  0.00    -0.480 OA
BRANCH  18  19
ATOM     19 C12  MOL A   1      14.407 -16.958  -8.040  1.00  0.00     0.166 A 
ATOM     20 C13  MOL A   1      15.634 -17.509  -8.475  1.00  0.00     0.012 A 
ATOM     21 C21  MOL A   1      16.763 -16.679  -8.567  1.00  0.00    -0.054 A 
ATOM     22 C22  MOL A   1      16.690 -15.338  -8.189  1.00  0.00    -0.058 A 
ATOM     23 C23  MOL A   1      15.490 -14.809  -7.712  1.00  0.00    -0.016 A 
ATOM     24 C24  MOL A   1      14.340 -15.616  -7.630  1.00  0.00     0.161 A 
BRANCH  20  25
ATOM     25 C14  MOL A   1      15.765 -18.970  -8.842  1.00  0.00     0.028 C 
BRANCH  25  26
ATOM     26 N15  MOL A   1      16.187 -19.761  -7.668  1.00  0.00    -0.287 NA
ATOM     27 C16  MOL A   1      17.004 -20.922  -8.062  1.00  0.00     0.064 C 
ATOM     28 C17  MOL A   1      15.953 -21.911  -7.598  1.00  0.00     0.272 C 
ATOM     29 F18  MOL A   1      16.348 -22.672  -6.511  1.00  0.00    -0.204 F 
ATOM     30 F19  MOL A   1      15.391 -22.651  -8.626  1.00  0.00    -0.204 F 
ATOM     31 C20  MOL A   1      15.137 -20.691  -7.218  1.00  0.00     0.064 C 
ENDBRANCH  25  26
ENDBRANCH  20  25
BRANCH  24  32
ATOM     32 O25  MOL A   1      13.116 -15.123  -7.156  1.00  0.00    -0.493 OA
ATOM     33 C26  MOL A   1      12.642 -15.289  -5.824  1.00  0.00     0.078 C 
ENDBRANCH  24  32
ENDBRANCH  18  19
ENDBRANCH  17  18
ENDBRANCH  15  17
ENDBRANCH   8  14
ENDBRANCH   1   8
TORSDOF 10
ENDMDL
MODEL 144
REMARK VINA RESULT:    -7.542      5.931     10.818
REMARK INTER + INTRA:         -12.999
REMARK INTER:                 -11.638
REMARK INTRA:                  -1.361
REMARK UNBOUND:                -1.048
REMARK  10 active torsions:
REMARK  status: ('A' for Active; 'I' for Inactive)
REMARK   1   A    between atoms:  C27_1   and   C6_8  
REMARK   2   A    between atoms:  C6_8    and   C5_9  
REMARK   3   A    between atoms:  C5_9    and   C3_12 
REMARK   4   A    between atoms:  C6_8    and   N7_14 
REMARK   5   A    between atoms:  C8_15   and  C10_17 
REMARK   6   A    between atoms: C10_17   and  O11_18 
REMARK   7   A    between atoms: O11_18   and  C12_19 
REMARK   8   A    between atoms: C13_20   and  C14_25 
REMARK   9   A    between atoms: C14_25   and  N15_26 
REMARK   10  A    between atoms: C24_24   and  O25_32 
ROOT
ATOM      1 C27  MOL A   1       8.315 -20.214 -10.150  1.00  0.00    -0.024 A 
ATOM      2 C28  MOL A   1       6.961 -20.532 -10.358  1.00  0.00    -0.057 A 
ATOM      3 C29  MOL A   1       6.533 -21.864 -10.320  1.00  0.00    -0.061 A 
ATOM      4 C30  MOL A   1       7.451 -22.889 -10.075  1.00  0.00    -0.048 A 
ATOM      5 C31  MOL A   1       8.800 -22.585  -9.862  1.00  0.00     0.018 A 
ATOM      6 Br32 MOL A   1      10.052 -23.987  -9.504  1.00  0.00    -0.051 Br
ATOM      7 C33  MOL A   1       9.233 -21.256  -9.905  1.00  0.00    -0.043 A 
ENDROOT
BRANCH   1   8
ATOM      8  C6  MOL A   1       8.782 -18.779 -10.264  1.00  0.00     0.063 C 
BRANCH   8   9
ATOM      9  C5  MOL A   1       8.063 -18.083 -11.434  1.00  0.00     0.051 C 
BRANCH   9  12
ATOM     10  C1  MOL A   1       5.728 -14.965 -11.399  1.00  0.00     0.006 C 
ATOM     11  N2  MOL A   1       6.394 -16.195 -11.803  1.00  0.00    -0.359 N 
ATOM     12  C3  MOL A   1       7.403 -16.808 -10.994  1.00  0.00     0.222 C 
ATOM     13  O4  MOL A   1       7.744 -16.280  -9.900  1.00  0.00    -0.275 OA
ENDBRANCH   9  12
ENDBRANCH   8   9
BRANCH   8  14
ATOM     14  N7  MOL A   1      10.236 -18.731 -10.449  1.00  0.00    -0.346 N 
ATOM     15  C8  MOL A   1      11.121 -18.205  -9.458  1.00  0.00     0.258 C 
ATOM     16  O9  MOL A   1      10.664 -17.749  -8.376  1.00  0.00    -0.271 OA
BRANCH  15  17
ATOM     17 C10  MOL A   1      12.603 -18.204  -9.687  1.00  0.00     0.167 C 
BRANCH  17  18
ATOM     18 O11  MOL A   1      13.299 -18.060  -8.452  1.00  0.00    -0.480 OA
BRANCH  18  19
ATOM     19 C12  MOL A   1      14.413 -17.226  -8.322  1.00  0.00     0.166 A 
ATOM     20 C13  MOL A   1      15.680 -17.617  -8.814  1.00  0.00     0.012 A 
ATOM     21 C21  MOL A   1      16.754 -16.715  -8.732  1.00  0.00    -0.054 A 
ATOM     22 C22  MOL A   1      16.587 -15.468  -8.130  1.00  0.00    -0.058 A 
ATOM     23 C23  MOL A   1      15.349 -15.105  -7.600  1.00  0.00    -0.016 A 
ATOM     24 C24  MOL A   1      14.253 -15.983  -7.688  1.00  0.00     0.161 A 
BRANCH  20  25
ATOM     25 C14  MOL A   1      15.911 -18.981  -9.425  1.00  0.00     0.028 C 
BRANCH  25  26
ATOM     26 N15  MOL A   1      16.114 -19.992  -8.368  1.00  0.00    -0.287 NA
ATOM     27 C16  MOL A   1      17.478 -20.544  -8.400  1.00  0.00     0.064 C 
ATOM     28 C17  MOL A   1      16.989 -21.925  -8.791  1.00  0.00     0.272 C 
ATOM     29 F18  MOL A   1      17.194 -22.884  -7.815  1.00  0.00    -0.204 F 
ATOM     30 F19  MOL A   1      17.388 -22.320 -10.058  1.00  0.00    -0.204 F 
ATOM     31 C20  MOL A   1      15.601 -21.316  -8.760  1.00  0.00     0.064 C 
ENDBRANCH  25  26
ENDBRANCH  20  25
BRANCH  24  32
ATOM     32 O25  MOL A   1      12.993 -15.657  -7.167  1.00  0.00    -0.493 OA
ATOM     33 C26  MOL A   1      12.769 -15.156  -5.853  1.00  0.00     0.078 C 
ENDBRANCH  24  32
ENDBRANCH  18  19
ENDBRANCH  17  18
ENDBRANCH  15  17
ENDBRANCH   8  14
ENDBRANCH   1   8
TORSDOF 10
ENDMDL
MODEL 145
REMARK VINA RESULT:    -7.539      4.863      7.467
REMARK INTER + INTRA:         -12.995
REMARK INTER:                 -12.857
REMARK INTRA:                  -0.138
REMARK UNBOUND:                -1.048
REMARK  10 active torsions:
REMARK  status: ('A' for Active; 'I' for Inactive)
REMARK   1   A    between atoms:  C27_1   and   C6_8  
REMARK   2   A    between atoms:  C6_8    and   C5_9  
REMARK   3   A    between atoms:  C5_9    and   C3_12 
REMARK   4   A    between atoms:  C6_8    and   N7_14 
REMARK   5   A    between atoms:  C8_15   and  C10_17 
REMARK   6   A    between atoms: C10_17   and  O11_18 
REMARK   7   A    between atoms: O11_18   and  C12_19 
REMARK   8   A    between atoms: C13_20   and  C14_25 
REMARK   9   A    between atoms: C14_25   and  N15_26 
REMARK   10  A    between atoms: C24_24   and  O25_32 
ROOT
ATOM      1 C27  MOL A   1       7.034 -16.548 -10.280  1.00  0.00    -0.024 A 
ATOM      2 C28  MOL A   1       7.447 -17.519 -11.210  1.00  0.00    -0.057 A 
ATOM      3 C29  MOL A   1       7.059 -17.425 -12.551  1.00  0.00    -0.061 A 
ATOM      4 C30  MOL A   1       6.255 -16.364 -12.976  1.00  0.00    -0.048 A 
ATOM      5 C31  MOL A   1       5.840 -15.389 -12.062  1.00  0.00     0.018 A 
ATOM      6 Br32 MOL A   1       4.758 -13.925 -12.649  1.00  0.00    -0.051 Br
ATOM      7 C33  MOL A   1       6.221 -15.482 -10.719  1.00  0.00    -0.043 A 
ENDROOT
BRANCH   1   8
ATOM      8  C6  MOL A   1       7.397 -16.695  -8.818  1.00  0.00     0.063 C 
BRANCH   8   9
ATOM      9  C5  MOL A   1       8.926 -16.644  -8.648  1.00  0.00     0.051 C 
BRANCH   9  12
ATOM     10  C1  MOL A   1      10.366 -19.984  -7.254  1.00  0.00     0.006 C 
ATOM     11  N2  MOL A   1       9.799 -18.646  -7.337  1.00  0.00    -0.359 N 
ATOM     12  C3  MOL A   1       9.521 -18.021  -8.595  1.00  0.00     0.222 C 
ATOM     13  O4  MOL A   1       9.772 -18.628  -9.672  1.00  0.00    -0.275 OA
ENDBRANCH   9  12
ENDBRANCH   8   9
BRANCH   8  14
ATOM     14  N7  MOL A   1       6.860 -17.952  -8.286  1.00  0.00    -0.346 N 
ATOM     15  C8  MOL A   1       5.564 -18.044  -7.691  1.00  0.00     0.258 C 
ATOM     16  O9  MOL A   1       4.834 -17.022  -7.598  1.00  0.00    -0.271 OA
BRANCH  15  17
ATOM     17 C10  MOL A   1       5.053 -19.360  -7.186  1.00  0.00     0.167 C 
BRANCH  17  18
ATOM     18 O11  MOL A   1       5.876 -20.427  -7.652  1.00  0.00    -0.480 OA
BRANCH  18  19
ATOM     19 C12  MOL A   1       5.512 -21.222  -8.742  1.00  0.00     0.166 A 
ATOM     20 C13  MOL A   1       4.174 -21.639  -8.929  1.00  0.00     0.012 A 
ATOM     21 C21  MOL A   1       3.839 -22.370 -10.080  1.00  0.00    -0.054 A 
ATOM     22 C22  MOL A   1       4.821 -22.724 -11.005  1.00  0.00    -0.058 A 
ATOM     23 C23  MOL A   1       6.149 -22.355 -10.794  1.00  0.00    -0.016 A 
ATOM     24 C24  MOL A   1       6.506 -21.605  -9.658  1.00  0.00     0.161 A 
BRANCH  20  25
ATOM     25 C14  MOL A   1       3.092 -21.320  -7.921  1.00  0.00     0.028 C 
BRANCH  25  26
ATOM     26 N15  MOL A   1       1.844 -20.933  -8.610  1.00  0.00    -0.287 NA
ATOM     27 C16  MOL A   1       0.865 -20.354  -7.673  1.00  0.00     0.064 C 
ATOM     28 C17  MOL A   1      -0.100 -21.508  -7.854  1.00  0.00     0.272 C 
ATOM     29 F18  MOL A   1      -1.282 -21.152  -8.480  1.00  0.00    -0.204 F 
ATOM     30 F19  MOL A   1      -0.278 -22.271  -6.711  1.00  0.00    -0.204 F 
ATOM     31 C20  MOL A   1       0.937 -22.078  -8.801  1.00  0.00     0.064 C 
ENDBRANCH  25  26
ENDBRANCH  20  25
BRANCH  24  32
ATOM     32 O25  MOL A   1       7.830 -21.215  -9.407  1.00  0.00    -0.493 OA
ATOM     33 C26  MOL A   1       8.978 -21.905  -9.890  1.00  0.00     0.078 C 
ENDBRANCH  24  32
ENDBRANCH  18  19
ENDBRANCH  17  18
ENDBRANCH  15  17
ENDBRANCH   8  14
ENDBRANCH   1   8
TORSDOF 10
ENDMDL
MODEL 146
REMARK VINA RESULT:    -7.537      5.843     10.410
REMARK INTER + INTRA:         -12.991
REMARK INTER:                 -11.935
REMARK INTRA:                  -1.056
REMARK UNBOUND:                -1.048
REMARK  10 active torsions:
REMARK  status: ('A' for Active; 'I' for Inactive)
REMARK   1   A    between atoms:  C27_1   and   C6_8  
REMARK   2   A    between atoms:  C6_8    and   C5_9  
REMARK   3   A    between atoms:  C5_9    and   C3_12 
REMARK   4   A    between atoms:  C6_8    and   N7_14 
REMARK   5   A    between atoms:  C8_15   and  C10_17 
REMARK   6   A    between atoms: C10_17   and  O11_18 
REMARK   7   A    between atoms: O11_18   and  C12_19 
REMARK   8   A    between atoms: C13_20   and  C14_25 
REMARK   9   A    between atoms: C14_25   and  N15_26 
REMARK   10  A    between atoms: C24_24   and  O25_32 
ROOT
ATOM      1 C27  MOL A   1       7.294 -17.653  -8.337  1.00  0.00    -0.024 A 
ATOM      2 C28  MOL A   1       6.802 -16.448  -7.803  1.00  0.00    -0.057 A 
ATOM      3 C29  MOL A   1       5.517 -16.391  -7.251  1.00  0.00    -0.061 A 
ATOM      4 C30  MOL A   1       4.714 -17.534  -7.226  1.00  0.00    -0.048 A 
ATOM      5 C31  MOL A   1       5.193 -18.740  -7.750  1.00  0.00     0.018 A 
ATOM      6 Br32 MOL A   1       4.100 -20.310  -7.696  1.00  0.00    -0.051 Br
ATOM      7 C33  MOL A   1       6.474 -18.799  -8.308  1.00  0.00    -0.043 A 
ENDROOT
BRANCH   1   8
ATOM      8  C6  MOL A   1       8.655 -17.688  -8.998  1.00  0.00     0.063 C 
BRANCH   8   9
ATOM      9  C5  MOL A   1       8.510 -18.058 -10.485  1.00  0.00     0.051 C 
BRANCH   9  12
ATOM     10  C1  MOL A   1       9.265 -21.857 -10.900  1.00  0.00     0.006 C 
ATOM     11  N2  MOL A   1       8.597 -20.601 -10.588  1.00  0.00    -0.359 N 
ATOM     12  C3  MOL A   1       9.230 -19.335 -10.807  1.00  0.00     0.222 C 
ATOM     13  O4  MOL A   1      10.399 -19.286 -11.278  1.00  0.00    -0.275 OA
ENDBRANCH   9  12
ENDBRANCH   8   9
BRANCH   8  14
ATOM     14  N7  MOL A   1       9.529 -18.645  -8.311  1.00  0.00    -0.346 N 
ATOM     15  C8  MOL A   1      10.837 -18.298  -7.851  1.00  0.00     0.258 C 
ATOM     16  O9  MOL A   1      11.289 -17.137  -8.036  1.00  0.00    -0.271 OA
BRANCH  15  17
ATOM     17 C10  MOL A   1      11.680 -19.308  -7.130  1.00  0.00     0.167 C 
BRANCH  17  18
ATOM     18 O11  MOL A   1      12.612 -19.910  -8.025  1.00  0.00    -0.480 OA
BRANCH  18  19
ATOM     19 C12  MOL A   1      13.721 -20.627  -7.569  1.00  0.00     0.166 A 
ATOM     20 C13  MOL A   1      15.003 -20.035  -7.515  1.00  0.00     0.012 A 
ATOM     21 C21  MOL A   1      16.074 -20.766  -6.975  1.00  0.00    -0.054 A 
ATOM     22 C22  MOL A   1      15.888 -22.079  -6.542  1.00  0.00    -0.058 A 
ATOM     23 C23  MOL A   1      14.632 -22.679  -6.643  1.00  0.00    -0.016 A 
ATOM     24 C24  MOL A   1      13.540 -21.959  -7.161  1.00  0.00     0.161 A 
BRANCH  20  25
ATOM     25 C14  MOL A   1      15.255 -18.633  -8.025  1.00  0.00     0.028 C 
BRANCH  25  26
ATOM     26 N15  MOL A   1      16.221 -17.933  -7.154  1.00  0.00    -0.287 NA
ATOM     27 C16  MOL A   1      15.727 -16.604  -6.754  1.00  0.00     0.064 C 
ATOM     28 C17  MOL A   1      16.817 -15.887  -7.526  1.00  0.00     0.272 C 
ATOM     29 F18  MOL A   1      17.716 -15.211  -6.719  1.00  0.00    -0.204 F 
ATOM     30 F19  MOL A   1      16.345 -15.137  -8.591  1.00  0.00    -0.204 F 
ATOM     31 C20  MOL A   1      17.287 -17.271  -7.926  1.00  0.00     0.064 C 
ENDBRANCH  25  26
ENDBRANCH  20  25
BRANCH  24  32
ATOM     32 O25  MOL A   1      12.263 -22.526  -7.280  1.00  0.00    -0.493 OA
ATOM     33 C26  MOL A   1      11.874 -23.427  -8.312  1.00  0.00     0.078 C 
ENDBRANCH  24  32
ENDBRANCH  18  19
ENDBRANCH  17  18
ENDBRANCH  15  17
ENDBRANCH   8  14
ENDBRANCH   1   8
TORSDOF 10
ENDMDL
MODEL 147
REMARK VINA RESULT:    -7.532      5.726     10.379
REMARK INTER + INTRA:         -12.983
REMARK INTER:                 -11.629
REMARK INTRA:                  -1.354
REMARK UNBOUND:                -1.048
REMARK  10 active torsions:
REMARK  status: ('A' for Active; 'I' for Inactive)
REMARK   1   A    between atoms:  C27_1   and   C6_8  
REMARK   2   A    between atoms:  C6_8    and   C5_9  
REMARK   3   A    between atoms:  C5_9    and   C3_12 
REMARK   4   A    between atoms:  C6_8    and   N7_14 
REMARK   5   A    between atoms:  C8_15   and  C10_17 
REMARK   6   A    between atoms: C10_17   and  O11_18 
REMARK   7   A    between atoms: O11_18   and  C12_19 
REMARK   8   A    between atoms: C13_20   and  C14_25 
REMARK   9   A    between atoms: C14_25   and  N15_26 
REMARK   10  A    between atoms: C24_24   and  O25_32 
ROOT
ATOM      1 C27  MOL A   1       7.289 -17.412 -10.654  1.00  0.00    -0.024 A 
ATOM      2 C28  MOL A   1       7.514 -17.857 -11.969  1.00  0.00    -0.057 A 
ATOM      3 C29  MOL A   1       6.955 -17.171 -13.053  1.00  0.00    -0.061 A 
ATOM      4 C30  MOL A   1       6.167 -16.038 -12.835  1.00  0.00    -0.048 A 
ATOM      5 C31  MOL A   1       5.937 -15.584 -11.532  1.00  0.00     0.018 A 
ATOM      6 Br32 MOL A   1       4.876 -14.020 -11.235  1.00  0.00    -0.051 Br
ATOM      7 C33  MOL A   1       6.490 -16.270 -10.445  1.00  0.00    -0.043 A 
ENDROOT
BRANCH   1   8
ATOM      8  C6  MOL A   1       7.836 -18.201  -9.484  1.00  0.00     0.063 C 
BRANCH   8   9
ATOM      9  C5  MOL A   1       6.889 -18.080  -8.277  1.00  0.00     0.051 C 
BRANCH   9  12
ATOM     10  C1  MOL A   1       5.184 -21.510  -8.984  1.00  0.00     0.006 C 
ATOM     11  N2  MOL A   1       6.119 -20.394  -9.010  1.00  0.00    -0.359 N 
ATOM     12  C3  MOL A   1       5.901 -19.209  -8.237  1.00  0.00     0.222 C 
ATOM     13  O4  MOL A   1       4.874 -19.108  -7.511  1.00  0.00    -0.275 OA
ENDBRANCH   9  12
ENDBRANCH   8   9
BRANCH   8  14
ATOM     14  N7  MOL A   1       9.180 -17.727  -9.136  1.00  0.00    -0.346 N 
ATOM     15  C8  MOL A   1      10.368 -18.364  -9.611  1.00  0.00     0.258 C 
ATOM     16  O9  MOL A   1      10.291 -19.381 -10.351  1.00  0.00    -0.271 OA
BRANCH  15  17
ATOM     17 C10  MOL A   1      11.717 -17.822  -9.246  1.00  0.00     0.167 C 
BRANCH  17  18
ATOM     18 O11  MOL A   1      12.689 -18.865  -9.241  1.00  0.00    -0.480 OA
BRANCH  18  19
ATOM     19 C12  MOL A   1      13.432 -19.181  -8.100  1.00  0.00     0.166 A 
ATOM     20 C13  MOL A   1      14.706 -18.612  -7.876  1.00  0.00     0.012 A 
ATOM     21 C21  MOL A   1      15.383 -18.896  -6.679  1.00  0.00    -0.054 A 
ATOM     22 C22  MOL A   1      14.828 -19.768  -5.741  1.00  0.00    -0.058 A 
ATOM     23 C23  MOL A   1      13.593 -20.368  -5.987  1.00  0.00    -0.016 A 
ATOM     24 C24  MOL A   1      12.887 -20.082  -7.171  1.00  0.00     0.161 A 
BRANCH  20  25
ATOM     25 C14  MOL A   1      15.363 -17.705  -8.893  1.00  0.00     0.028 C 
BRANCH  25  26
ATOM     26 N15  MOL A   1      16.833 -17.848  -8.839  1.00  0.00    -0.287 NA
ATOM     27 C16  MOL A   1      17.511 -16.734  -9.523  1.00  0.00     0.064 C 
ATOM     28 C17  MOL A   1      18.065 -17.640 -10.605  1.00  0.00     0.272 C 
ATOM     29 F18  MOL A   1      19.443 -17.764 -10.575  1.00  0.00    -0.204 F 
ATOM     30 F19  MOL A   1      17.552 -17.380 -11.866  1.00  0.00    -0.204 F 
ATOM     31 C20  MOL A   1      17.342 -18.758  -9.880  1.00  0.00     0.064 C 
ENDBRANCH  25  26
ENDBRANCH  20  25
BRANCH  24  32
ATOM     32 O25  MOL A   1      11.644 -20.665  -7.456  1.00  0.00    -0.493 OA
ATOM     33 C26  MOL A   1      10.443 -20.391  -6.742  1.00  0.00     0.078 C 
ENDBRANCH  24  32
ENDBRANCH  18  19
ENDBRANCH  17  18
ENDBRANCH  15  17
ENDBRANCH   8  14
ENDBRANCH   1   8
TORSDOF 10
ENDMDL
MODEL 148
REMARK VINA RESULT:    -7.524      2.915      4.278
REMARK INTER + INTRA:         -12.971
REMARK INTER:                 -11.790
REMARK INTRA:                  -1.181
REMARK UNBOUND:                -1.048
REMARK  10 active torsions:
REMARK  status: ('A' for Active; 'I' for Inactive)
REMARK   1   A    between atoms:  C27_1   and   C6_8  
REMARK   2   A    between atoms:  C6_8    and   C5_9  
REMARK   3   A    between atoms:  C5_9    and   C3_12 
REMARK   4   A    between atoms:  C6_8    and   N7_14 
REMARK   5   A    between atoms:  C8_15   and  C10_17 
REMARK   6   A    between atoms: C10_17   and  O11_18 
REMARK   7   A    between atoms: O11_18   and  C12_19 
REMARK   8   A    between atoms: C13_20   and  C14_25 
REMARK   9   A    between atoms: C14_25   and  N15_26 
REMARK   10  A    between atoms: C24_24   and  O25_32 
ROOT
ATOM      1 C27  MOL A   1       7.396 -19.277  -9.993  1.00  0.00    -0.024 A 
ATOM      2 C28  MOL A   1       6.376 -19.087  -9.043  1.00  0.00    -0.057 A 
ATOM      3 C29  MOL A   1       5.909 -20.164  -8.282  1.00  0.00    -0.061 A 
ATOM      4 C30  MOL A   1       6.454 -21.438  -8.462  1.00  0.00    -0.048 A 
ATOM      5 C31  MOL A   1       7.471 -21.640  -9.402  1.00  0.00     0.018 A 
ATOM      6 Br32 MOL A   1       8.231 -23.381  -9.632  1.00  0.00    -0.051 Br
ATOM      7 C33  MOL A   1       7.937 -20.567 -10.168  1.00  0.00    -0.043 A 
ENDROOT
BRANCH   1   8
ATOM      8  C6  MOL A   1       7.845 -18.122 -10.863  1.00  0.00     0.063 C 
BRANCH   8   9
ATOM      9  C5  MOL A   1       9.347 -17.857 -10.653  1.00  0.00     0.051 C 
BRANCH   9  12
ATOM     10  C1  MOL A   1      10.856 -18.759  -7.177  1.00  0.00     0.006 C 
ATOM     11  N2  MOL A   1      10.494 -18.805  -8.587  1.00  0.00    -0.359 N 
ATOM     12  C3  MOL A   1       9.694 -17.785  -9.194  1.00  0.00     0.222 C 
ATOM     13  O4  MOL A   1       9.278 -16.814  -8.506  1.00  0.00    -0.275 OA
ENDBRANCH   9  12
ENDBRANCH   8   9
BRANCH   8  14
ATOM     14  N7  MOL A   1       7.061 -16.921 -10.558  1.00  0.00    -0.346 N 
ATOM     15  C8  MOL A   1       6.343 -16.196 -11.559  1.00  0.00     0.258 C 
ATOM     16  O9  MOL A   1       6.373 -16.573 -12.761  1.00  0.00    -0.271 OA
BRANCH  15  17
ATOM     17 C10  MOL A   1       5.535 -14.989 -11.188  1.00  0.00     0.167 C 
BRANCH  17  18
ATOM     18 O11  MOL A   1       4.202 -15.110 -11.680  1.00  0.00    -0.480 OA
BRANCH  18  19
ATOM     19 C12  MOL A   1       3.291 -14.052 -11.621  1.00  0.00     0.166 A 
ATOM     20 C13  MOL A   1       2.333 -13.970 -10.584  1.00  0.00     0.012 A 
ATOM     21 C21  MOL A   1       1.489 -12.849 -10.519  1.00  0.00    -0.054 A 
ATOM     22 C22  MOL A   1       1.561 -11.851 -11.491  1.00  0.00    -0.058 A 
ATOM     23 C23  MOL A   1       2.472 -11.959 -12.541  1.00  0.00    -0.016 A 
ATOM     24 C24  MOL A   1       3.342 -13.063 -12.617  1.00  0.00     0.161 A 
BRANCH  20  25
ATOM     25 C14  MOL A   1       2.190 -15.058  -9.543  1.00  0.00     0.028 C 
BRANCH  25  26
ATOM     26 N15  MOL A   1       2.822 -14.643  -8.274  1.00  0.00    -0.287 NA
ATOM     27 C16  MOL A   1       4.152 -15.254  -8.106  1.00  0.00     0.064 C 
ATOM     28 C17  MOL A   1       3.703 -16.079  -6.916  1.00  0.00     0.272 C 
ATOM     29 F18  MOL A   1       4.306 -15.712  -5.726  1.00  0.00    -0.204 F 
ATOM     30 F19  MOL A   1       3.711 -17.445  -7.151  1.00  0.00    -0.204 F 
ATOM     31 C20  MOL A   1       2.346 -15.439  -7.130  1.00  0.00     0.064 C 
ENDBRANCH  25  26
ENDBRANCH  20  25
BRANCH  24  32
ATOM     32 O25  MOL A   1       4.271 -13.210 -13.656  1.00  0.00    -0.493 OA
ATOM     33 C26  MOL A   1       5.133 -12.176 -14.118  1.00  0.00     0.078 C 
ENDBRANCH  24  32
ENDBRANCH  18  19
ENDBRANCH  17  18
ENDBRANCH  15  17
ENDBRANCH   8  14
ENDBRANCH   1   8
TORSDOF 10
ENDMDL
MODEL 149
REMARK VINA RESULT:    -7.523      7.131     11.868
REMARK INTER + INTRA:         -12.969
REMARK INTER:                 -11.462
REMARK INTRA:                  -1.507
REMARK UNBOUND:                -1.048
REMARK  10 active torsions:
REMARK  status: ('A' for Active; 'I' for Inactive)
REMARK   1   A    between atoms:  C27_1   and   C6_8  
REMARK   2   A    between atoms:  C6_8    and   C5_9  
REMARK   3   A    between atoms:  C5_9    and   C3_12 
REMARK   4   A    between atoms:  C6_8    and   N7_14 
REMARK   5   A    between atoms:  C8_15   and  C10_17 
REMARK   6   A    between atoms: C10_17   and  O11_18 
REMARK   7   A    between atoms: O11_18   and  C12_19 
REMARK   8   A    between atoms: C13_20   and  C14_25 
REMARK   9   A    between atoms: C14_25   and  N15_26 
REMARK   10  A    between atoms: C24_24   and  O25_32 
ROOT
ATOM      1 C27  MOL A   1       9.788 -18.079  -9.075  1.00  0.00    -0.024 A 
ATOM      2 C28  MOL A   1       9.350 -17.095  -8.171  1.00  0.00    -0.057 A 
ATOM      3 C29  MOL A   1       8.271 -16.266  -8.496  1.00  0.00    -0.061 A 
ATOM      4 C30  MOL A   1       7.619 -16.411  -9.724  1.00  0.00    -0.048 A 
ATOM      5 C31  MOL A   1       8.043 -17.389 -10.631  1.00  0.00     0.018 A 
ATOM      6 Br32 MOL A   1       7.136 -17.602 -12.302  1.00  0.00    -0.051 Br
ATOM      7 C33  MOL A   1       9.125 -18.216 -10.312  1.00  0.00    -0.043 A 
ENDROOT
BRANCH   1   8
ATOM      8  C6  MOL A   1      11.002 -18.923  -8.748  1.00  0.00     0.063 C 
BRANCH   8   9
ATOM      9  C5  MOL A   1      10.603 -20.081  -7.816  1.00  0.00     0.051 C 
BRANCH   9  12
ATOM     10  C1  MOL A   1       9.661 -22.991 -10.228  1.00  0.00     0.006 C 
ATOM     11  N2  MOL A   1       9.647 -21.724  -9.510  1.00  0.00    -0.359 N 
ATOM     12  C3  MOL A   1      10.639 -21.401  -8.531  1.00  0.00     0.222 C 
ATOM     13  O4  MOL A   1      11.556 -22.224  -8.263  1.00  0.00    -0.275 OA
ENDBRANCH   9  12
ENDBRANCH   8   9
BRANCH   8  14
ATOM     14  N7  MOL A   1      12.043 -18.096  -8.127  1.00  0.00    -0.346 N 
ATOM     15  C8  MOL A   1      13.407 -18.131  -8.551  1.00  0.00     0.258 C 
ATOM     16  O9  MOL A   1      13.763 -18.900  -9.484  1.00  0.00    -0.271 OA
BRANCH  15  17
ATOM     17 C10  MOL A   1      14.426 -17.246  -7.900  1.00  0.00     0.167 C 
BRANCH  17  18
ATOM     18 O11  MOL A   1      14.733 -17.717  -6.590  1.00  0.00    -0.480 OA
BRANCH  18  19
ATOM     19 C12  MOL A   1      15.991 -17.532  -6.011  1.00  0.00     0.166 A 
ATOM     20 C13  MOL A   1      17.050 -18.435  -6.258  1.00  0.00     0.012 A 
ATOM     21 C21  MOL A   1      18.320 -18.167  -5.720  1.00  0.00    -0.054 A 
ATOM     22 C22  MOL A   1      18.524 -17.050  -4.910  1.00  0.00    -0.058 A 
ATOM     23 C23  MOL A   1      17.465 -16.187  -4.626  1.00  0.00    -0.016 A 
ATOM     24 C24  MOL A   1      16.189 -16.424  -5.170  1.00  0.00     0.161 A 
BRANCH  20  25
ATOM     25 C14  MOL A   1      16.853 -19.685  -7.088  1.00  0.00     0.028 C 
BRANCH  25  26
ATOM     26 N15  MOL A   1      16.679 -20.862  -6.212  1.00  0.00    -0.287 NA
ATOM     27 C16  MOL A   1      16.839 -22.121  -6.960  1.00  0.00     0.064 C 
ATOM     28 C17  MOL A   1      15.387 -22.509  -6.760  1.00  0.00     0.272 C 
ATOM     29 F18  MOL A   1      15.215 -23.624  -5.958  1.00  0.00    -0.204 F 
ATOM     30 F19  MOL A   1      14.652 -22.543  -7.934  1.00  0.00    -0.204 F 
ATOM     31 C20  MOL A   1      15.260 -21.198  -6.009  1.00  0.00     0.064 C 
ENDBRANCH  25  26
ENDBRANCH  20  25
BRANCH  24  32
ATOM     32 O25  MOL A   1      15.099 -15.582  -4.908  1.00  0.00    -0.493 OA
ATOM     33 C26  MOL A   1      14.557 -15.344  -3.613  1.00  0.00     0.078 C 
ENDBRANCH  24  32
ENDBRANCH  18  19
ENDBRANCH  17  18
ENDBRANCH  15  17
ENDBRANCH   8  14
ENDBRANCH   1   8
TORSDOF 10
ENDMDL
MODEL 150
REMARK VINA RESULT:    -7.519      3.594      8.325
REMARK INTER + INTRA:         -12.963
REMARK INTER:                 -12.207
REMARK INTRA:                  -0.756
REMARK UNBOUND:                -1.048
REMARK  10 active torsions:
REMARK  status: ('A' for Active; 'I' for Inactive)
REMARK   1   A    between atoms:  C27_1   and   C6_8  
REMARK   2   A    between atoms:  C6_8    and   C5_9  
REMARK   3   A    between atoms:  C5_9    and   C3_12 
REMARK   4   A    between atoms:  C6_8    and   N7_14 
REMARK   5   A    between atoms:  C8_15   and  C10_17 
REMARK   6   A    between atoms: C10_17   and  O11_18 
REMARK   7   A    between atoms: O11_18   and  C12_19 
REMARK   8   A    between atoms: C13_20   and  C14_25 
REMARK   9   A    between atoms: C14_25   and  N15_26 
REMARK   10  A    between atoms: C24_24   and  O25_32 
ROOT
ATOM      1 C27  MOL A   1       4.191 -14.778 -10.155  1.00  0.00    -0.024 A 
ATOM      2 C28  MOL A   1       2.881 -14.350 -10.439  1.00  0.00    -0.057 A 
ATOM      3 C29  MOL A   1       1.903 -14.352  -9.439  1.00  0.00    -0.061 A 
ATOM      4 C30  MOL A   1       2.222 -14.781  -8.147  1.00  0.00    -0.048 A 
ATOM      5 C31  MOL A   1       3.522 -15.206  -7.851  1.00  0.00     0.018 A 
ATOM      6 Br32 MOL A   1       3.963 -15.772  -6.077  1.00  0.00    -0.051 Br
ATOM      7 C33  MOL A   1       4.501 -15.211  -8.850  1.00  0.00    -0.043 A 
ENDROOT
BRANCH   1   8
ATOM      8  C6  MOL A   1       5.223 -14.842 -11.260  1.00  0.00     0.063 C 
BRANCH   8   9
ATOM      9  C5  MOL A   1       4.634 -14.278 -12.566  1.00  0.00     0.051 C 
BRANCH   9  12
ATOM     10  C1  MOL A   1       3.440 -10.588 -12.932  1.00  0.00     0.006 C 
ATOM     11  N2  MOL A   1       3.466 -12.044 -12.927  1.00  0.00    -0.359 N 
ATOM     12  C3  MOL A   1       4.643 -12.777 -12.571  1.00  0.00     0.222 C 
ATOM     13  O4  MOL A   1       5.698 -12.163 -12.254  1.00  0.00    -0.275 OA
ENDBRANCH   9  12
ENDBRANCH   8   9
BRANCH   8  14
ATOM     14  N7  MOL A   1       5.677 -16.223 -11.452  1.00  0.00    -0.346 N 
ATOM     15  C8  MOL A   1       6.887 -16.722 -10.877  1.00  0.00     0.258 C 
ATOM     16  O9  MOL A   1       7.618 -15.968 -10.181  1.00  0.00    -0.271 OA
BRANCH  15  17
ATOM     17 C10  MOL A   1       7.292 -18.151 -11.084  1.00  0.00     0.167 C 
BRANCH  17  18
ATOM     18 O11  MOL A   1       7.379 -18.831  -9.834  1.00  0.00    -0.480 OA
BRANCH  18  19
ATOM     19 C12  MOL A   1       7.917 -20.116  -9.725  1.00  0.00     0.166 A 
ATOM     20 C13  MOL A   1       9.310 -20.336  -9.815  1.00  0.00     0.012 A 
ATOM     21 C21  MOL A   1       9.814 -21.633  -9.621  1.00  0.00    -0.054 A 
ATOM     22 C22  MOL A   1       8.947 -22.701  -9.389  1.00  0.00    -0.058 A 
ATOM     23 C23  MOL A   1       7.569 -22.490  -9.351  1.00  0.00    -0.016 A 
ATOM     24 C24  MOL A   1       7.042 -21.196  -9.522  1.00  0.00     0.161 A 
BRANCH  20  25
ATOM     25 C14  MOL A   1      10.276 -19.211 -10.118  1.00  0.00     0.028 C 
BRANCH  25  26
ATOM     26 N15  MOL A   1      11.135 -18.941  -8.947  1.00  0.00    -0.287 NA
ATOM     27 C16  MOL A   1      10.337 -18.643  -7.746  1.00  0.00     0.064 C 
ATOM     28 C17  MOL A   1      10.829 -17.211  -7.684  1.00  0.00     0.272 C 
ATOM     29 F18  MOL A   1      11.618 -16.942  -6.579  1.00  0.00    -0.204 F 
ATOM     30 F19  MOL A   1       9.837 -16.270  -7.907  1.00  0.00    -0.204 F 
ATOM     31 C20  MOL A   1      11.626 -17.552  -8.927  1.00  0.00     0.064 C 
ENDBRANCH  25  26
ENDBRANCH  20  25
BRANCH  24  32
ATOM     32 O25  MOL A   1       5.664 -20.942  -9.491  1.00  0.00    -0.493 OA
ATOM     33 C26  MOL A   1       4.678 -21.769 -10.101  1.00  0.00     0.078 C 
ENDBRANCH  24  32
ENDBRANCH  18  19
ENDBRANCH  17  18
ENDBRANCH  15  17
ENDBRANCH   8  14
ENDBRANCH   1   8
TORSDOF 10
ENDMDL
MODEL 151
REMARK VINA RESULT:    -7.516      4.456      9.301
REMARK INTER + INTRA:         -12.958
REMARK INTER:                 -12.597
REMARK INTRA:                  -0.361
REMARK UNBOUND:                -1.048
REMARK  10 active torsions:
REMARK  status: ('A' for Active; 'I' for Inactive)
REMARK   1   A    between atoms:  C27_1   and   C6_8  
REMARK   2   A    between atoms:  C6_8    and   C5_9  
REMARK   3   A    between atoms:  C5_9    and   C3_12 
REMARK   4   A    between atoms:  C6_8    and   N7_14 
REMARK   5   A    between atoms:  C8_15   and  C10_17 
REMARK   6   A    between atoms: C10_17   and  O11_18 
REMARK   7   A    between atoms: O11_18   and  C12_19 
REMARK   8   A    between atoms: C13_20   and  C14_25 
REMARK   9   A    between atoms: C14_25   and  N15_26 
REMARK   10  A    between atoms: C24_24   and  O25_32 
ROOT
ATOM      1 C27  MOL A   1       7.058 -19.373  -9.886  1.00  0.00    -0.024 A 
ATOM      2 C28  MOL A   1       7.040 -20.363 -10.885  1.00  0.00    -0.057 A 
ATOM      3 C29  MOL A   1       6.355 -21.565 -10.678  1.00  0.00    -0.061 A 
ATOM      4 C30  MOL A   1       5.684 -21.792  -9.474  1.00  0.00    -0.048 A 
ATOM      5 C31  MOL A   1       5.691 -20.814  -8.472  1.00  0.00     0.018 A 
ATOM      6 Br32 MOL A   1       4.753 -21.116  -6.833  1.00  0.00    -0.051 Br
ATOM      7 C33  MOL A   1       6.379 -19.613  -8.674  1.00  0.00    -0.043 A 
ENDROOT
BRANCH   1   8
ATOM      8  C6  MOL A   1       7.860 -18.107 -10.089  1.00  0.00     0.063 C 
BRANCH   8   9
ATOM      9  C5  MOL A   1       7.997 -17.804 -11.592  1.00  0.00     0.051 C 
BRANCH   9  12
ATOM     10  C1  MOL A   1       5.421 -14.883 -11.527  1.00  0.00     0.006 C 
ATOM     11  N2  MOL A   1       6.403 -15.875 -11.115  1.00  0.00    -0.359 N 
ATOM     12  C3  MOL A   1       6.978 -16.799 -12.046  1.00  0.00     0.222 C 
ATOM     13  O4  MOL A   1       6.632 -16.772 -13.258  1.00  0.00    -0.275 OA
ENDBRANCH   9  12
ENDBRANCH   8   9
BRANCH   8  14
ATOM     14  N7  MOL A   1       9.182 -18.237  -9.466  1.00  0.00    -0.346 N 
ATOM     15  C8  MOL A   1      10.296 -18.825 -10.142  1.00  0.00     0.258 C 
ATOM     16  O9  MOL A   1      10.166 -19.267 -11.314  1.00  0.00    -0.271 OA
BRANCH  15  17
ATOM     17 C10  MOL A   1      11.633 -18.910  -9.468  1.00  0.00     0.167 C 
BRANCH  17  18
ATOM     18 O11  MOL A   1      11.475 -19.199  -8.081  1.00  0.00    -0.480 OA
BRANCH  18  19
ATOM     19 C12  MOL A   1      12.537 -19.650  -7.293  1.00  0.00     0.166 A 
ATOM     20 C13  MOL A   1      13.545 -18.765  -6.847  1.00  0.00     0.012 A 
ATOM     21 C21  MOL A   1      14.549 -19.246  -5.991  1.00  0.00    -0.054 A 
ATOM     22 C22  MOL A   1      14.582 -20.591  -5.623  1.00  0.00    -0.058 A 
ATOM     23 C23  MOL A   1      13.616 -21.473  -6.104  1.00  0.00    -0.016 A 
ATOM     24 C24  MOL A   1      12.588 -21.011  -6.947  1.00  0.00     0.161 A 
BRANCH  20  25
ATOM     25 C14  MOL A   1      13.572 -17.312  -7.267  1.00  0.00     0.028 C 
BRANCH  25  26
ATOM     26 N15  MOL A   1      14.927 -16.751  -7.095  1.00  0.00    -0.287 NA
ATOM     27 C16  MOL A   1      14.884 -15.398  -6.513  1.00  0.00     0.064 C 
ATOM     28 C17  MOL A   1      15.431 -14.759  -7.773  1.00  0.00     0.272 C 
ATOM     29 F18  MOL A   1      16.692 -14.211  -7.616  1.00  0.00    -0.204 F 
ATOM     30 F19  MOL A   1      14.530 -13.920  -8.409  1.00  0.00    -0.204 F 
ATOM     31 C20  MOL A   1      15.449 -16.164  -8.342  1.00  0.00     0.064 C 
ENDBRANCH  25  26
ENDBRANCH  20  25
BRANCH  24  32
ATOM     32 O25  MOL A   1      11.598 -21.865  -7.453  1.00  0.00    -0.493 OA
ATOM     33 C26  MOL A   1      11.853 -22.986  -8.293  1.00  0.00     0.078 C 
ENDBRANCH  24  32
ENDBRANCH  18  19
ENDBRANCH  17  18
ENDBRANCH  15  17
ENDBRANCH   8  14
ENDBRANCH   1   8
TORSDOF 10
ENDMDL
MODEL 152
REMARK VINA RESULT:    -7.512      6.767     11.443
REMARK INTER + INTRA:         -12.952
REMARK INTER:                 -11.465
REMARK INTRA:                  -1.487
REMARK UNBOUND:                -1.048
REMARK  10 active torsions:
REMARK  status: ('A' for Active; 'I' for Inactive)
REMARK   1   A    between atoms:  C27_1   and   C6_8  
REMARK   2   A    between atoms:  C6_8    and   C5_9  
REMARK   3   A    between atoms:  C5_9    and   C3_12 
REMARK   4   A    between atoms:  C6_8    and   N7_14 
REMARK   5   A    between atoms:  C8_15   and  C10_17 
REMARK   6   A    between atoms: C10_17   and  O11_18 
REMARK   7   A    between atoms: O11_18   and  C12_19 
REMARK   8   A    between atoms: C13_20   and  C14_25 
REMARK   9   A    between atoms: C14_25   and  N15_26 
REMARK   10  A    between atoms: C24_24   and  O25_32 
ROOT
ATOM      1 C27  MOL A   1      10.289 -17.942  -8.427  1.00  0.00    -0.024 A 
ATOM      2 C28  MOL A   1       9.811 -16.845  -7.686  1.00  0.00    -0.057 A 
ATOM      3 C29  MOL A   1       8.670 -16.152  -8.105  1.00  0.00    -0.061 A 
ATOM      4 C30  MOL A   1       7.997 -16.544  -9.265  1.00  0.00    -0.048 A 
ATOM      5 C31  MOL A   1       8.461 -17.635 -10.009  1.00  0.00     0.018 A 
ATOM      6 Br32 MOL A   1       7.526 -18.185 -11.585  1.00  0.00    -0.051 Br
ATOM      7 C33  MOL A   1       9.604 -18.328  -9.597  1.00  0.00    -0.043 A 
ENDROOT
BRANCH   1   8
ATOM      8  C6  MOL A   1      11.564 -18.641  -8.008  1.00  0.00     0.063 C 
BRANCH   8   9
ATOM      9  C5  MOL A   1      11.230 -19.924  -7.227  1.00  0.00     0.051 C 
BRANCH   9  12
ATOM     10  C1  MOL A   1      14.675 -21.707  -7.586  1.00  0.00     0.006 C 
ATOM     11  N2  MOL A   1      13.459 -20.966  -7.888  1.00  0.00    -0.359 N 
ATOM     12  C3  MOL A   1      12.469 -20.701  -6.887  1.00  0.00     0.222 C 
ATOM     13  O4  MOL A   1      12.635 -21.117  -5.708  1.00  0.00    -0.275 OA
ENDBRANCH   9  12
ENDBRANCH   8   9
BRANCH   8  14
ATOM     14  N7  MOL A   1      12.392 -17.743  -7.195  1.00  0.00    -0.346 N 
ATOM     15  C8  MOL A   1      13.533 -17.062  -7.721  1.00  0.00     0.258 C 
ATOM     16  O9  MOL A   1      13.872 -17.226  -8.923  1.00  0.00    -0.271 OA
BRANCH  15  17
ATOM     17 C10  MOL A   1      14.330 -16.135  -6.853  1.00  0.00     0.167 C 
BRANCH  17  18
ATOM     18 O11  MOL A   1      15.696 -16.122  -7.259  1.00  0.00    -0.480 OA
BRANCH  18  19
ATOM     19 C12  MOL A   1      16.669 -16.890  -6.612  1.00  0.00     0.166 A 
ATOM     20 C13  MOL A   1      17.160 -16.525  -5.337  1.00  0.00     0.012 A 
ATOM     21 C21  MOL A   1      18.079 -17.368  -4.690  1.00  0.00    -0.054 A 
ATOM     22 C22  MOL A   1      18.538 -18.527  -5.315  1.00  0.00    -0.058 A 
ATOM     23 C23  MOL A   1      18.090 -18.859  -6.594  1.00  0.00    -0.016 A 
ATOM     24 C24  MOL A   1      17.155 -18.041  -7.254  1.00  0.00     0.161 A 
BRANCH  20  25
ATOM     25 C14  MOL A   1      16.725 -15.249  -4.652  1.00  0.00     0.028 C 
BRANCH  25  26
ATOM     26 N15  MOL A   1      16.264 -15.533  -3.278  1.00  0.00    -0.287 NA
ATOM     27 C16  MOL A   1      15.141 -16.487  -3.270  1.00  0.00     0.064 C 
ATOM     28 C17  MOL A   1      14.169 -15.452  -2.739  1.00  0.00     0.272 C 
ATOM     29 F18  MOL A   1      13.715 -15.721  -1.460  1.00  0.00    -0.204 F 
ATOM     30 F19  MOL A   1      13.165 -15.120  -3.633  1.00  0.00    -0.204 F 
ATOM     31 C20  MOL A   1      15.346 -14.497  -2.774  1.00  0.00     0.064 C 
ENDBRANCH  25  26
ENDBRANCH  20  25
BRANCH  24  32
ATOM     32 O25  MOL A   1      16.680 -18.338  -8.539  1.00  0.00    -0.493 OA
ATOM     33 C26  MOL A   1      17.412 -19.066  -9.520  1.00  0.00     0.078 C 
ENDBRANCH  24  32
ENDBRANCH  18  19
ENDBRANCH  17  18
ENDBRANCH  15  17
ENDBRANCH   8  14
ENDBRANCH   1   8
TORSDOF 10
ENDMDL
MODEL 153
REMARK VINA RESULT:    -7.511      6.319     11.152
REMARK INTER + INTRA:         -12.951
REMARK INTER:                 -11.729
REMARK INTRA:                  -1.221
REMARK UNBOUND:                -1.048
REMARK  10 active torsions:
REMARK  status: ('A' for Active; 'I' for Inactive)
REMARK   1   A    between atoms:  C27_1   and   C6_8  
REMARK   2   A    between atoms:  C6_8    and   C5_9  
REMARK   3   A    between atoms:  C5_9    and   C3_12 
REMARK   4   A    between atoms:  C6_8    and   N7_14 
REMARK   5   A    between atoms:  C8_15   and  C10_17 
REMARK   6   A    between atoms: C10_17   and  O11_18 
REMARK   7   A    between atoms: O11_18   and  C12_19 
REMARK   8   A    between atoms: C13_20   and  C14_25 
REMARK   9   A    between atoms: C14_25   and  N15_26 
REMARK   10  A    between atoms: C24_24   and  O25_32 
ROOT
ATOM      1 C27  MOL A   1       9.616 -18.178  -9.162  1.00  0.00    -0.024 A 
ATOM      2 C28  MOL A   1       9.227 -17.190  -8.240  1.00  0.00    -0.057 A 
ATOM      3 C29  MOL A   1       8.217 -16.278  -8.564  1.00  0.00    -0.061 A 
ATOM      4 C30  MOL A   1       7.586 -16.343  -9.810  1.00  0.00    -0.048 A 
ATOM      5 C31  MOL A   1       7.962 -17.324 -10.735  1.00  0.00     0.018 A 
ATOM      6 Br32 MOL A   1       7.084 -17.426 -12.432  1.00  0.00    -0.051 Br
ATOM      7 C33  MOL A   1       8.975 -18.233 -10.417  1.00  0.00    -0.043 A 
ENDROOT
BRANCH   1   8
ATOM      8  C6  MOL A   1      10.759 -19.114  -8.832  1.00  0.00     0.063 C 
BRANCH   8   9
ATOM      9  C5  MOL A   1      10.245 -20.300  -7.996  1.00  0.00     0.051 C 
BRANCH   9  12
ATOM     10  C1  MOL A   1       7.263 -22.263  -9.557  1.00  0.00     0.006 C 
ATOM     11  N2  MOL A   1       8.043 -21.338  -8.746  1.00  0.00    -0.359 N 
ATOM     12  C3  MOL A   1       9.470 -21.272  -8.839  1.00  0.00     0.222 C 
ATOM     13  O4  MOL A   1      10.088 -22.032  -9.634  1.00  0.00    -0.275 OA
ENDBRANCH   9  12
ENDBRANCH   8   9
BRANCH   8  14
ATOM     14  N7  MOL A   1      11.814 -18.394  -8.111  1.00  0.00    -0.346 N 
ATOM     15  C8  MOL A   1      13.121 -18.198  -8.655  1.00  0.00     0.258 C 
ATOM     16  O9  MOL A   1      13.412 -18.659  -9.791  1.00  0.00    -0.271 OA
BRANCH  15  17
ATOM     17 C10  MOL A   1      14.155 -17.431  -7.887  1.00  0.00     0.167 C 
BRANCH  17  18
ATOM     18 O11  MOL A   1      14.433 -18.074  -6.645  1.00  0.00    -0.480 OA
BRANCH  18  19
ATOM     19 C12  MOL A   1      15.739 -18.305  -6.206  1.00  0.00     0.166 A 
ATOM     20 C13  MOL A   1      16.444 -17.332  -5.462  1.00  0.00     0.012 A 
ATOM     21 C21  MOL A   1      17.725 -17.638  -4.973  1.00  0.00    -0.054 A 
ATOM     22 C22  MOL A   1      18.316 -18.869  -5.258  1.00  0.00    -0.058 A 
ATOM     23 C23  MOL A   1      17.639 -19.809  -6.035  1.00  0.00    -0.016 A 
ATOM     24 C24  MOL A   1      16.346 -19.532  -6.519  1.00  0.00     0.161 A 
BRANCH  20  25
ATOM     25 C14  MOL A   1      15.857 -15.967  -5.179  1.00  0.00     0.028 C 
BRANCH  25  26
ATOM     26 N15  MOL A   1      15.856 -15.697  -3.726  1.00  0.00    -0.287 NA
ATOM     27 C16  MOL A   1      14.791 -16.446  -3.037  1.00  0.00     0.064 C 
ATOM     28 C17  MOL A   1      14.043 -15.182  -2.664  1.00  0.00     0.272 C 
ATOM     29 F18  MOL A   1      14.018 -14.932  -1.303  1.00  0.00    -0.204 F 
ATOM     30 F19  MOL A   1      12.807 -15.063  -3.278  1.00  0.00    -0.204 F 
ATOM     31 C20  MOL A   1      15.151 -14.447  -3.393  1.00  0.00     0.064 C 
ENDBRANCH  25  26
ENDBRANCH  20  25
BRANCH  24  32
ATOM     32 O25  MOL A   1      15.632 -20.450  -7.303  1.00  0.00    -0.493 OA
ATOM     33 C26  MOL A   1      15.876 -21.852  -7.326  1.00  0.00     0.078 C 
ENDBRANCH  24  32
ENDBRANCH  18  19
ENDBRANCH  17  18
ENDBRANCH  15  17
ENDBRANCH   8  14
ENDBRANCH   1   8
TORSDOF 10
ENDMDL
MODEL 154
REMARK VINA RESULT:    -7.509      6.156     10.631
REMARK INTER + INTRA:         -12.948
REMARK INTER:                 -11.702
REMARK INTRA:                  -1.246
REMARK UNBOUND:                -1.048
REMARK  10 active torsions:
REMARK  status: ('A' for Active; 'I' for Inactive)
REMARK   1   A    between atoms:  C27_1   and   C6_8  
REMARK   2   A    between atoms:  C6_8    and   C5_9  
REMARK   3   A    between atoms:  C5_9    and   C3_12 
REMARK   4   A    between atoms:  C6_8    and   N7_14 
REMARK   5   A    between atoms:  C8_15   and  C10_17 
REMARK   6   A    between atoms: C10_17   and  O11_18 
REMARK   7   A    between atoms: O11_18   and  C12_19 
REMARK   8   A    between atoms: C13_20   and  C14_25 
REMARK   9   A    between atoms: C14_25   and  N15_26 
REMARK   10  A    between atoms: C24_24   and  O25_32 
ROOT
ATOM      1 C27  MOL A   1       7.500 -17.600 -10.532  1.00  0.00    -0.024 A 
ATOM      2 C28  MOL A   1       7.871 -18.218 -11.740  1.00  0.00    -0.057 A 
ATOM      3 C29  MOL A   1       7.442 -17.691 -12.964  1.00  0.00    -0.061 A 
ATOM      4 C30  MOL A   1       6.641 -16.546 -12.993  1.00  0.00    -0.048 A 
ATOM      5 C31  MOL A   1       6.269 -15.921 -11.798  1.00  0.00     0.018 A 
ATOM      6 Br32 MOL A   1       5.191 -14.341 -11.840  1.00  0.00    -0.051 Br
ATOM      7 C33  MOL A   1       6.691 -16.447 -10.573  1.00  0.00    -0.043 A 
ENDROOT
BRANCH   1   8
ATOM      8  C6  MOL A   1       7.907 -18.217  -9.211  1.00  0.00     0.063 C 
BRANCH   8   9
ATOM      9  C5  MOL A   1       6.750 -18.112  -8.201  1.00  0.00     0.051 C 
BRANCH   9  12
ATOM     10  C1  MOL A   1       5.290 -21.567  -9.249  1.00  0.00     0.006 C 
ATOM     11  N2  MOL A   1       6.137 -20.386  -9.170  1.00  0.00    -0.359 N 
ATOM     12  C3  MOL A   1       5.851 -19.312  -8.267  1.00  0.00     0.222 C 
ATOM     13  O4  MOL A   1       4.840 -19.370  -7.515  1.00  0.00    -0.275 OA
ENDBRANCH   9  12
ENDBRANCH   8   9
BRANCH   8  14
ATOM     14  N7  MOL A   1       9.109 -17.556  -8.690  1.00  0.00    -0.346 N 
ATOM     15  C8  MOL A   1      10.114 -18.256  -7.954  1.00  0.00     0.258 C 
ATOM     16  O9  MOL A   1       9.987 -19.487  -7.719  1.00  0.00    -0.271 OA
BRANCH  15  17
ATOM     17 C10  MOL A   1      11.336 -17.538  -7.467  1.00  0.00     0.167 C 
BRANCH  17  18
ATOM     18 O11  MOL A   1      12.515 -18.154  -7.980  1.00  0.00    -0.480 OA
BRANCH  18  19
ATOM     19 C12  MOL A   1      13.667 -18.311  -7.204  1.00  0.00     0.166 A 
ATOM     20 C13  MOL A   1      13.939 -19.528  -6.538  1.00  0.00     0.012 A 
ATOM     21 C21  MOL A   1      15.147 -19.669  -5.834  1.00  0.00    -0.054 A 
ATOM     22 C22  MOL A   1      16.046 -18.606  -5.751  1.00  0.00    -0.058 A 
ATOM     23 C23  MOL A   1      15.752 -17.389  -6.367  1.00  0.00    -0.016 A 
ATOM     24 C24  MOL A   1      14.558 -17.231  -7.094  1.00  0.00     0.161 A 
BRANCH  20  25
ATOM     25 C14  MOL A   1      12.964 -20.684  -6.561  1.00  0.00     0.028 C 
BRANCH  25  26
ATOM     26 N15  MOL A   1      13.069 -21.422  -7.836  1.00  0.00    -0.287 NA
ATOM     27 C16  MOL A   1      11.978 -22.401  -7.987  1.00  0.00     0.064 C 
ATOM     28 C17  MOL A   1      12.929 -23.580  -7.920  1.00  0.00     0.272 C 
ATOM     29 F18  MOL A   1      13.018 -24.290  -9.104  1.00  0.00    -0.204 F 
ATOM     30 F19  MOL A   1      12.751 -24.376  -6.800  1.00  0.00    -0.204 F 
ATOM     31 C20  MOL A   1      14.022 -22.542  -7.754  1.00  0.00     0.064 C 
ENDBRANCH  25  26
ENDBRANCH  20  25
BRANCH  24  32
ATOM     32 O25  MOL A   1      14.224 -16.024  -7.727  1.00  0.00    -0.493 OA
ATOM     33 C26  MOL A   1      14.040 -14.785  -7.051  1.00  0.00     0.078 C 
ENDBRANCH  24  32
ENDBRANCH  18  19
ENDBRANCH  17  18
ENDBRANCH  15  17
ENDBRANCH   8  14
ENDBRANCH   1   8
TORSDOF 10
ENDMDL
MODEL 155
REMARK VINA RESULT:    -7.505      4.723     10.073
REMARK INTER + INTRA:         -12.941
REMARK INTER:                 -12.489
REMARK INTRA:                  -0.451
REMARK UNBOUND:                -1.048
REMARK  10 active torsions:
REMARK  status: ('A' for Active; 'I' for Inactive)
REMARK   1   A    between atoms:  C27_1   and   C6_8  
REMARK   2   A    between atoms:  C6_8    and   C5_9  
REMARK   3   A    between atoms:  C5_9    and   C3_12 
REMARK   4   A    between atoms:  C6_8    and   N7_14 
REMARK   5   A    between atoms:  C8_15   and  C10_17 
REMARK   6   A    between atoms: C10_17   and  O11_18 
REMARK   7   A    between atoms: O11_18   and  C12_19 
REMARK   8   A    between atoms: C13_20   and  C14_25 
REMARK   9   A    between atoms: C14_25   and  N15_26 
REMARK   10  A    between atoms: C24_24   and  O25_32 
ROOT
ATOM      1 C27  MOL A   1       6.840 -18.153  -8.463  1.00  0.00    -0.024 A 
ATOM      2 C28  MOL A   1       6.393 -16.957  -7.871  1.00  0.00    -0.057 A 
ATOM      3 C29  MOL A   1       5.172 -16.918  -7.190  1.00  0.00    -0.061 A 
ATOM      4 C30  MOL A   1       4.386 -18.069  -7.092  1.00  0.00    -0.048 A 
ATOM      5 C31  MOL A   1       4.820 -19.266  -7.673  1.00  0.00     0.018 A 
ATOM      6 Br32 MOL A   1       3.754 -20.847  -7.520  1.00  0.00    -0.051 Br
ATOM      7 C33  MOL A   1       6.038 -19.308  -8.360  1.00  0.00    -0.043 A 
ENDROOT
BRANCH   1   8
ATOM      8  C6  MOL A   1       8.126 -18.169  -9.260  1.00  0.00     0.063 C 
BRANCH   8   9
ATOM      9  C5  MOL A   1       7.843 -18.601 -10.710  1.00  0.00     0.051 C 
BRANCH   9  12
ATOM     10  C1  MOL A   1       6.050 -15.264 -11.621  1.00  0.00     0.006 C 
ATOM     11  N2  MOL A   1       6.615 -16.375 -10.867  1.00  0.00    -0.359 N 
ATOM     12  C3  MOL A   1       7.261 -17.475 -11.516  1.00  0.00     0.222 C 
ATOM     13  O4  MOL A   1       7.349 -17.505 -12.774  1.00  0.00    -0.275 OA
ENDBRANCH   9  12
ENDBRANCH   8   9
BRANCH   8  14
ATOM     14  N7  MOL A   1       9.101 -19.069  -8.634  1.00  0.00    -0.346 N 
ATOM     15  C8  MOL A   1      10.217 -18.590  -7.881  1.00  0.00     0.258 C 
ATOM     16  O9  MOL A   1      10.405 -17.352  -7.740  1.00  0.00    -0.271 OA
BRANCH  15  17
ATOM     17 C10  MOL A   1      11.169 -19.555  -7.240  1.00  0.00     0.167 C 
BRANCH  17  18
ATOM     18 O11  MOL A   1      12.375 -19.642  -7.995  1.00  0.00    -0.480 OA
BRANCH  18  19
ATOM     19 C12  MOL A   1      13.566 -20.118  -7.439  1.00  0.00     0.166 A 
ATOM     20 C13  MOL A   1      14.527 -19.231  -6.902  1.00  0.00     0.012 A 
ATOM     21 C21  MOL A   1      15.673 -19.757  -6.282  1.00  0.00    -0.054 A 
ATOM     22 C22  MOL A   1      15.885 -21.135  -6.237  1.00  0.00    -0.058 A 
ATOM     23 C23  MOL A   1      14.959 -22.005  -6.811  1.00  0.00    -0.016 A 
ATOM     24 C24  MOL A   1      13.794 -21.503  -7.420  1.00  0.00     0.161 A 
BRANCH  20  25
ATOM     25 C14  MOL A   1      14.358 -17.730  -6.980  1.00  0.00     0.028 C 
BRANCH  25  26
ATOM     26 N15  MOL A   1      15.670 -17.057  -6.888  1.00  0.00    -0.287 NA
ATOM     27 C16  MOL A   1      15.573 -15.777  -6.167  1.00  0.00     0.064 C 
ATOM     28 C17  MOL A   1      15.920 -14.971  -7.403  1.00  0.00     0.272 C 
ATOM     29 F18  MOL A   1      17.138 -14.320  -7.319  1.00  0.00    -0.204 F 
ATOM     30 F19  MOL A   1      14.885 -14.168  -7.853  1.00  0.00    -0.204 F 
ATOM     31 C20  MOL A   1      15.997 -16.308  -8.114  1.00  0.00     0.064 C 
ENDBRANCH  25  26
ENDBRANCH  20  25
BRANCH  24  32
ATOM     32 O25  MOL A   1      12.839 -22.345  -8.010  1.00  0.00    -0.493 OA
ATOM     33 C26  MOL A   1      12.801 -23.758  -7.847  1.00  0.00     0.078 C 
ENDBRANCH  24  32
ENDBRANCH  18  19
ENDBRANCH  17  18
ENDBRANCH  15  17
ENDBRANCH   8  14
ENDBRANCH   1   8
TORSDOF 10
ENDMDL
MODEL 156
REMARK VINA RESULT:    -7.502      6.126     10.771
REMARK INTER + INTRA:         -12.936
REMARK INTER:                 -11.997
REMARK INTRA:                  -0.938
REMARK UNBOUND:                -1.048
REMARK  10 active torsions:
REMARK  status: ('A' for Active; 'I' for Inactive)
REMARK   1   A    between atoms:  C27_1   and   C6_8  
REMARK   2   A    between atoms:  C6_8    and   C5_9  
REMARK   3   A    between atoms:  C5_9    and   C3_12 
REMARK   4   A    between atoms:  C6_8    and   N7_14 
REMARK   5   A    between atoms:  C8_15   and  C10_17 
REMARK   6   A    between atoms: C10_17   and  O11_18 
REMARK   7   A    between atoms: O11_18   and  C12_19 
REMARK   8   A    between atoms: C13_20   and  C14_25 
REMARK   9   A    between atoms: C14_25   and  N15_26 
REMARK   10  A    between atoms: C24_24   and  O25_32 
ROOT
ATOM      1 C27  MOL A   1       9.343 -18.281  -9.188  1.00  0.00    -0.024 A 
ATOM      2 C28  MOL A   1       9.077 -17.225  -8.297  1.00  0.00    -0.057 A 
ATOM      3 C29  MOL A   1       8.176 -16.214  -8.648  1.00  0.00    -0.061 A 
ATOM      4 C30  MOL A   1       7.534 -16.246  -9.889  1.00  0.00    -0.048 A 
ATOM      5 C31  MOL A   1       7.787 -17.292 -10.783  1.00  0.00     0.018 A 
ATOM      6 Br32 MOL A   1       6.891 -17.347 -12.472  1.00  0.00    -0.051 Br
ATOM      7 C33  MOL A   1       8.691 -18.302 -10.438  1.00  0.00    -0.043 A 
ENDROOT
BRANCH   1   8
ATOM      8  C6  MOL A   1      10.373 -19.331  -8.831  1.00  0.00     0.063 C 
BRANCH   8   9
ATOM      9  C5  MOL A   1       9.692 -20.519  -8.128  1.00  0.00     0.051 C 
BRANCH   9  12
ATOM     10  C1  MOL A   1       7.393 -22.736 -10.358  1.00  0.00     0.006 C 
ATOM     11  N2  MOL A   1       7.856 -21.743  -9.400  1.00  0.00    -0.359 N 
ATOM     12  C3  MOL A   1       9.246 -21.560  -9.115  1.00  0.00     0.222 C 
ATOM     13  O4  MOL A   1      10.110 -22.273  -9.695  1.00  0.00    -0.275 OA
ENDBRANCH   9  12
ENDBRANCH   8   9
BRANCH   8  14
ATOM     14  N7  MOL A   1      11.413 -18.752  -7.974  1.00  0.00    -0.346 N 
ATOM     15  C8  MOL A   1      12.728 -19.304  -7.881  1.00  0.00     0.258 C 
ATOM     16  O9  MOL A   1      13.033 -20.333  -8.541  1.00  0.00    -0.271 OA
BRANCH  15  17
ATOM     17 C10  MOL A   1      13.763 -18.657  -7.010  1.00  0.00     0.167 C 
BRANCH  17  18
ATOM     18 O11  MOL A   1      15.071 -19.072  -7.396  1.00  0.00    -0.480 OA
BRANCH  18  19
ATOM     19 C12  MOL A   1      16.205 -18.736  -6.652  1.00  0.00     0.166 A 
ATOM     20 C13  MOL A   1      16.805 -17.461  -6.769  1.00  0.00     0.012 A 
ATOM     21 C21  MOL A   1      17.895 -17.138  -5.944  1.00  0.00    -0.054 A 
ATOM     22 C22  MOL A   1      18.412 -18.080  -5.054  1.00  0.00    -0.058 A 
ATOM     23 C23  MOL A   1      17.851 -19.354  -4.976  1.00  0.00    -0.016 A 
ATOM     24 C24  MOL A   1      16.745 -19.694  -5.778  1.00  0.00     0.161 A 
BRANCH  20  25
ATOM     25 C14  MOL A   1      16.305 -16.433  -7.760  1.00  0.00     0.028 C 
BRANCH  25  26
ATOM     26 N15  MOL A   1      16.000 -15.161  -7.074  1.00  0.00    -0.287 NA
ATOM     27 C16  MOL A   1      15.116 -15.369  -5.914  1.00  0.00     0.064 C 
ATOM     28 C17  MOL A   1      13.975 -14.603  -6.554  1.00  0.00     0.272 C 
ATOM     29 F18  MOL A   1      13.668 -13.419  -5.906  1.00  0.00    -0.204 F 
ATOM     30 F19  MOL A   1      12.870 -15.387  -6.843  1.00  0.00    -0.204 F 
ATOM     31 C20  MOL A   1      14.910 -14.421  -7.733  1.00  0.00     0.064 C 
ENDBRANCH  25  26
ENDBRANCH  20  25
BRANCH  24  32
ATOM     32 O25  MOL A   1      16.152 -20.964  -5.731  1.00  0.00    -0.493 OA
ATOM     33 C26  MOL A   1      16.071 -21.856  -6.837  1.00  0.00     0.078 C 
ENDBRANCH  24  32
ENDBRANCH  18  19
ENDBRANCH  17  18
ENDBRANCH  15  17
ENDBRANCH   8  14
ENDBRANCH   1   8
TORSDOF 10
ENDMDL
MODEL 157
REMARK VINA RESULT:    -7.501      5.371     10.081
REMARK INTER + INTRA:         -12.935
REMARK INTER:                 -12.542
REMARK INTRA:                  -0.393
REMARK UNBOUND:                -1.048
REMARK  10 active torsions:
REMARK  status: ('A' for Active; 'I' for Inactive)
REMARK   1   A    between atoms:  C27_1   and   C6_8  
REMARK   2   A    between atoms:  C6_8    and   C5_9  
REMARK   3   A    between atoms:  C5_9    and   C3_12 
REMARK   4   A    between atoms:  C6_8    and   N7_14 
REMARK   5   A    between atoms:  C8_15   and  C10_17 
REMARK   6   A    between atoms: C10_17   and  O11_18 
REMARK   7   A    between atoms: O11_18   and  C12_19 
REMARK   8   A    between atoms: C13_20   and  C14_25 
REMARK   9   A    between atoms: C14_25   and  N15_26 
REMARK   10  A    between atoms: C24_24   and  O25_32 
ROOT
ATOM      1 C27  MOL A   1       7.472 -18.433  -9.879  1.00  0.00    -0.024 A 
ATOM      2 C28  MOL A   1       7.529 -17.532 -10.958  1.00  0.00    -0.057 A 
ATOM      3 C29  MOL A   1       6.881 -16.294 -10.881  1.00  0.00    -0.061 A 
ATOM      4 C30  MOL A   1       6.170 -15.945  -9.730  1.00  0.00    -0.048 A 
ATOM      5 C31  MOL A   1       6.108 -16.831  -8.648  1.00  0.00     0.018 A 
ATOM      6 Br32 MOL A   1       5.153 -16.343  -7.064  1.00  0.00    -0.051 Br
ATOM      7 C33  MOL A   1       6.751 -18.071  -8.723  1.00  0.00    -0.043 A 
ENDROOT
BRANCH   1   8
ATOM      8  C6  MOL A   1       8.115 -19.798  -9.998  1.00  0.00     0.063 C 
BRANCH   8   9
ATOM      9  C5  MOL A   1       7.504 -20.760  -8.963  1.00  0.00     0.051 C 
BRANCH   9  12
ATOM     10  C1  MOL A   1       3.923 -22.024  -9.833  1.00  0.00     0.006 C 
ATOM     11  N2  MOL A   1       5.025 -21.260  -9.265  1.00  0.00    -0.359 N 
ATOM     12  C3  MOL A   1       6.391 -21.573  -9.557  1.00  0.00     0.222 C 
ATOM     13  O4  MOL A   1       6.668 -22.537 -10.322  1.00  0.00    -0.275 OA
ENDBRANCH   9  12
ENDBRANCH   8   9
BRANCH   8  14
ATOM     14  N7  MOL A   1       9.566 -19.694  -9.813  1.00  0.00    -0.346 N 
ATOM     15  C8  MOL A   1      10.177 -19.663  -8.521  1.00  0.00     0.258 C 
ATOM     16  O9  MOL A   1       9.467 -19.715  -7.482  1.00  0.00    -0.271 OA
BRANCH  15  17
ATOM     17 C10  MOL A   1      11.668 -19.583  -8.389  1.00  0.00     0.167 C 
BRANCH  17  18
ATOM     18 O11  MOL A   1      12.052 -19.655  -7.018  1.00  0.00    -0.480 OA
BRANCH  18  19
ATOM     19 C12  MOL A   1      13.349 -19.999  -6.628  1.00  0.00     0.166 A 
ATOM     20 C13  MOL A   1      14.353 -19.015  -6.481  1.00  0.00     0.012 A 
ATOM     21 C21  MOL A   1      15.622 -19.396  -6.011  1.00  0.00    -0.054 A 
ATOM     22 C22  MOL A   1      15.904 -20.734  -5.739  1.00  0.00    -0.058 A 
ATOM     23 C23  MOL A   1      14.927 -21.710  -5.934  1.00  0.00    -0.016 A 
ATOM     24 C24  MOL A   1      13.643 -21.351  -6.384  1.00  0.00     0.161 A 
BRANCH  20  25
ATOM     25 C14  MOL A   1      14.100 -17.562  -6.816  1.00  0.00     0.028 C 
BRANCH  25  26
ATOM     26 N15  MOL A   1      15.375 -16.818  -6.881  1.00  0.00    -0.287 NA
ATOM     27 C16  MOL A   1      15.221 -15.437  -6.392  1.00  0.00     0.064 C 
ATOM     28 C17  MOL A   1      15.500 -14.845  -7.760  1.00  0.00     0.272 C 
ATOM     29 F18  MOL A   1      16.682 -14.128  -7.824  1.00  0.00    -0.204 F 
ATOM     30 F19  MOL A   1      14.414 -14.187  -8.314  1.00  0.00    -0.204 F 
ATOM     31 C20  MOL A   1      15.637 -16.281  -8.227  1.00  0.00     0.064 C 
ENDBRANCH  25  26
ENDBRANCH  20  25
BRANCH  24  32
ATOM     32 O25  MOL A   1      12.633 -22.301  -6.593  1.00  0.00    -0.493 OA
ATOM     33 C26  MOL A   1      12.443 -23.022  -7.807  1.00  0.00     0.078 C 
ENDBRANCH  24  32
ENDBRANCH  18  19
ENDBRANCH  17  18
ENDBRANCH  15  17
ENDBRANCH   8  14
ENDBRANCH   1   8
TORSDOF 10
ENDMDL
MODEL 158
REMARK VINA RESULT:    -7.489      6.263     10.744
REMARK INTER + INTRA:         -12.915
REMARK INTER:                 -11.911
REMARK INTRA:                  -1.004
REMARK UNBOUND:                -1.048
REMARK  10 active torsions:
REMARK  status: ('A' for Active; 'I' for Inactive)
REMARK   1   A    between atoms:  C27_1   and   C6_8  
REMARK   2   A    between atoms:  C6_8    and   C5_9  
REMARK   3   A    between atoms:  C5_9    and   C3_12 
REMARK   4   A    between atoms:  C6_8    and   N7_14 
REMARK   5   A    between atoms:  C8_15   and  C10_17 
REMARK   6   A    between atoms: C10_17   and  O11_18 
REMARK   7   A    between atoms: O11_18   and  C12_19 
REMARK   8   A    between atoms: C13_20   and  C14_25 
REMARK   9   A    between atoms: C14_25   and  N15_26 
REMARK   10  A    between atoms: C24_24   and  O25_32 
ROOT
ATOM      1 C27  MOL A   1       8.615 -17.970  -9.195  1.00  0.00    -0.024 A 
ATOM      2 C28  MOL A   1       7.885 -17.178  -8.290  1.00  0.00    -0.057 A 
ATOM      3 C29  MOL A   1       6.853 -16.350  -8.747  1.00  0.00    -0.061 A 
ATOM      4 C30  MOL A   1       6.541 -16.305 -10.108  1.00  0.00    -0.048 A 
ATOM      5 C31  MOL A   1       7.257 -17.091 -11.018  1.00  0.00     0.018 A 
ATOM      6 Br32 MOL A   1       6.814 -17.046 -12.879  1.00  0.00    -0.051 Br
ATOM      7 C33  MOL A   1       8.292 -17.916 -10.566  1.00  0.00    -0.043 A 
ENDROOT
BRANCH   1   8
ATOM      8  C6  MOL A   1       9.776 -18.807  -8.702  1.00  0.00     0.063 C 
BRANCH   8   9
ATOM      9  C5  MOL A   1       9.257 -20.122  -8.093  1.00  0.00     0.051 C 
BRANCH   9  12
ATOM     10  C1  MOL A   1       7.227 -22.719 -10.169  1.00  0.00     0.006 C 
ATOM     11  N2  MOL A   1       7.613 -21.759  -9.145  1.00  0.00    -0.359 N 
ATOM     12  C3  MOL A   1       8.892 -21.116  -9.158  1.00  0.00     0.222 C 
ATOM     13  O4  MOL A   1       9.723 -21.378 -10.071  1.00  0.00    -0.275 OA
ENDBRANCH   9  12
ENDBRANCH   8   9
BRANCH   8  14
ATOM     14  N7  MOL A   1      10.561 -18.056  -7.717  1.00  0.00    -0.346 N 
ATOM     15  C8  MOL A   1      11.786 -17.399  -8.049  1.00  0.00     0.258 C 
ATOM     16  O9  MOL A   1      12.240 -17.457  -9.223  1.00  0.00    -0.271 OA
BRANCH  15  17
ATOM     17 C10  MOL A   1      12.536 -16.623  -7.009  1.00  0.00     0.167 C 
BRANCH  17  18
ATOM     18 O11  MOL A   1      13.753 -17.286  -6.672  1.00  0.00    -0.480 OA
BRANCH  18  19
ATOM     19 C12  MOL A   1      14.987 -16.631  -6.702  1.00  0.00     0.166 A 
ATOM     20 C13  MOL A   1      15.388 -15.780  -5.647  1.00  0.00     0.012 A 
ATOM     21 C21  MOL A   1      16.670 -15.205  -5.680  1.00  0.00    -0.054 A 
ATOM     22 C22  MOL A   1      17.519 -15.431  -6.763  1.00  0.00    -0.058 A 
ATOM     23 C23  MOL A   1      17.102 -16.231  -7.827  1.00  0.00    -0.016 A 
ATOM     24 C24  MOL A   1      15.830 -16.834  -7.806  1.00  0.00     0.161 A 
BRANCH  20  25
ATOM     25 C14  MOL A   1      14.474 -15.469  -4.482  1.00  0.00     0.028 C 
BRANCH  25  26
ATOM     26 N15  MOL A   1      15.074 -14.430  -3.620  1.00  0.00    -0.287 NA
ATOM     27 C16  MOL A   1      15.686 -15.014  -2.414  1.00  0.00     0.064 C 
ATOM     28 C17  MOL A   1      14.683 -14.350  -1.493  1.00  0.00     0.272 C 
ATOM     29 F18  MOL A   1      15.239 -13.389  -0.666  1.00  0.00    -0.204 F 
ATOM     30 F19  MOL A   1      13.851 -15.243  -0.837  1.00  0.00    -0.204 F 
ATOM     31 C20  MOL A   1      14.073 -13.778  -2.758  1.00  0.00     0.064 C 
ENDBRANCH  25  26
ENDBRANCH  20  25
BRANCH  24  32
ATOM     32 O25  MOL A   1      15.372 -17.644  -8.856  1.00  0.00    -0.493 OA
ATOM     33 C26  MOL A   1      15.988 -18.862  -9.261  1.00  0.00     0.078 C 
ENDBRANCH  24  32
ENDBRANCH  18  19
ENDBRANCH  17  18
ENDBRANCH  15  17
ENDBRANCH   8  14
ENDBRANCH   1   8
TORSDOF 10
ENDMDL
MODEL 159
REMARK VINA RESULT:    -7.488      4.762      8.094
REMARK INTER + INTRA:         -12.914
REMARK INTER:                 -12.996
REMARK INTRA:                   0.082
REMARK UNBOUND:                -1.048
REMARK  10 active torsions:
REMARK  status: ('A' for Active; 'I' for Inactive)
REMARK   1   A    between atoms:  C27_1   and   C6_8  
REMARK   2   A    between atoms:  C6_8    and   C5_9  
REMARK   3   A    between atoms:  C5_9    and   C3_12 
REMARK   4   A    between atoms:  C6_8    and   N7_14 
REMARK   5   A    between atoms:  C8_15   and  C10_17 
REMARK   6   A    between atoms: C10_17   and  O11_18 
REMARK   7   A    between atoms: O11_18   and  C12_19 
REMARK   8   A    between atoms: C13_20   and  C14_25 
REMARK   9   A    between atoms: C14_25   and  N15_26 
REMARK   10  A    between atoms: C24_24   and  O25_32 
ROOT
ATOM      1 C27  MOL A   1       5.379 -14.577 -11.260  1.00  0.00    -0.024 A 
ATOM      2 C28  MOL A   1       5.555 -13.418 -12.038  1.00  0.00    -0.057 A 
ATOM      3 C29  MOL A   1       4.551 -12.446 -12.096  1.00  0.00    -0.061 A 
ATOM      4 C30  MOL A   1       3.364 -12.620 -11.379  1.00  0.00    -0.048 A 
ATOM      5 C31  MOL A   1       3.177 -13.766 -10.598  1.00  0.00     0.018 A 
ATOM      6 Br32 MOL A   1       1.561 -13.993  -9.600  1.00  0.00    -0.051 Br
ATOM      7 C33  MOL A   1       4.177 -14.743 -10.542  1.00  0.00    -0.043 A 
ENDROOT
BRANCH   1   8
ATOM      8  C6  MOL A   1       6.438 -15.658 -11.260  1.00  0.00     0.063 C 
BRANCH   8   9
ATOM      9  C5  MOL A   1       6.339 -16.493 -12.549  1.00  0.00     0.051 C 
BRANCH   9  12
ATOM     10  C1  MOL A   1       9.323 -18.900 -11.861  1.00  0.00     0.006 C 
ATOM     11  N2  MOL A   1       8.136 -18.076 -11.683  1.00  0.00    -0.359 N 
ATOM     12  C3  MOL A   1       7.571 -17.324 -12.762  1.00  0.00     0.222 C 
ATOM     13  O4  MOL A   1       8.105 -17.359 -13.905  1.00  0.00    -0.275 OA
ENDBRANCH   9  12
ENDBRANCH   8   9
BRANCH   8  14
ATOM     14  N7  MOL A   1       6.292 -16.514 -10.078  1.00  0.00    -0.346 N 
ATOM     15  C8  MOL A   1       7.305 -16.621  -9.075  1.00  0.00     0.258 C 
ATOM     16  O9  MOL A   1       8.380 -15.975  -9.188  1.00  0.00    -0.271 OA
BRANCH  15  17
ATOM     17 C10  MOL A   1       7.092 -17.491  -7.873  1.00  0.00     0.167 C 
BRANCH  17  18
ATOM     18 O11  MOL A   1       7.086 -18.866  -8.247  1.00  0.00    -0.480 OA
BRANCH  18  19
ATOM     19 C12  MOL A   1       5.902 -19.601  -8.354  1.00  0.00     0.166 A 
ATOM     20 C13  MOL A   1       5.832 -20.762  -9.157  1.00  0.00     0.012 A 
ATOM     21 C21  MOL A   1       4.645 -21.514  -9.172  1.00  0.00    -0.054 A 
ATOM     22 C22  MOL A   1       3.532 -21.095  -8.443  1.00  0.00    -0.058 A 
ATOM     23 C23  MOL A   1       3.588 -19.921  -7.690  1.00  0.00    -0.016 A 
ATOM     24 C24  MOL A   1       4.772 -19.163  -7.644  1.00  0.00     0.161 A 
BRANCH  20  25
ATOM     25 C14  MOL A   1       7.000 -21.218 -10.003  1.00  0.00     0.028 C 
BRANCH  25  26
ATOM     26 N15  MOL A   1       7.920 -22.054  -9.205  1.00  0.00    -0.287 NA
ATOM     27 C16  MOL A   1       9.328 -21.702  -9.456  1.00  0.00     0.064 C 
ATOM     28 C17  MOL A   1       9.625 -23.043 -10.097  1.00  0.00     0.272 C 
ATOM     29 F18  MOL A   1      10.502 -23.826  -9.366  1.00  0.00    -0.204 F 
ATOM     30 F19  MOL A   1       9.935 -22.961 -11.444  1.00  0.00    -0.204 F 
ATOM     31 C20  MOL A   1       8.167 -23.363  -9.833  1.00  0.00     0.064 C 
ENDBRANCH  25  26
ENDBRANCH  20  25
BRANCH  24  32
ATOM     32 O25  MOL A   1       4.869 -17.977  -6.901  1.00  0.00    -0.493 OA
ATOM     33 C26  MOL A   1       4.038 -16.837  -7.091  1.00  0.00     0.078 C 
ENDBRANCH  24  32
ENDBRANCH  18  19
ENDBRANCH  17  18
ENDBRANCH  15  17
ENDBRANCH   8  14
ENDBRANCH   1   8
TORSDOF 10
ENDMDL
MODEL 160
REMARK VINA RESULT:    -7.486      7.621     12.135
REMARK INTER + INTRA:         -12.910
REMARK INTER:                 -11.535
REMARK INTRA:                  -1.376
REMARK UNBOUND:                -1.048
REMARK  10 active torsions:
REMARK  status: ('A' for Active; 'I' for Inactive)
REMARK   1   A    between atoms:  C27_1   and   C6_8  
REMARK   2   A    between atoms:  C6_8    and   C5_9  
REMARK   3   A    between atoms:  C5_9    and   C3_12 
REMARK   4   A    between atoms:  C6_8    and   N7_14 
REMARK   5   A    between atoms:  C8_15   and  C10_17 
REMARK   6   A    between atoms: C10_17   and  O11_18 
REMARK   7   A    between atoms: O11_18   and  C12_19 
REMARK   8   A    between atoms: C13_20   and  C14_25 
REMARK   9   A    between atoms: C14_25   and  N15_26 
REMARK   10  A    between atoms: C24_24   and  O25_32 
ROOT
ATOM      1 C27  MOL A   1       9.906 -17.865  -8.585  1.00  0.00    -0.024 A 
ATOM      2 C28  MOL A   1       9.384 -16.743  -7.917  1.00  0.00    -0.057 A 
ATOM      3 C29  MOL A   1       8.303 -16.037  -8.457  1.00  0.00    -0.061 A 
ATOM      4 C30  MOL A   1       7.735 -16.444  -9.667  1.00  0.00    -0.048 A 
ATOM      5 C31  MOL A   1       8.243 -17.561 -10.340  1.00  0.00     0.018 A 
ATOM      6 Br32 MOL A   1       7.450 -18.131 -11.985  1.00  0.00    -0.051 Br
ATOM      7 C33  MOL A   1       9.326 -18.265  -9.806  1.00  0.00    -0.043 A 
ENDROOT
BRANCH   1   8
ATOM      8  C6  MOL A   1      11.121 -18.578  -8.031  1.00  0.00     0.063 C 
BRANCH   8   9
ATOM      9  C5  MOL A   1      10.683 -19.801  -7.204  1.00  0.00     0.051 C 
BRANCH   9  12
ATOM     10  C1  MOL A   1      13.747 -22.046  -6.341  1.00  0.00     0.006 C 
ATOM     11  N2  MOL A   1      12.753 -20.983  -6.307  1.00  0.00    -0.359 N 
ATOM     12  C3  MOL A   1      11.699 -20.904  -7.273  1.00  0.00     0.222 C 
ATOM     13  O4  MOL A   1      11.615 -21.767  -8.189  1.00  0.00    -0.275 OA
ENDBRANCH   9  12
ENDBRANCH   8   9
BRANCH   8  14
ATOM     14  N7  MOL A   1      11.920 -17.660  -7.212  1.00  0.00    -0.346 N 
ATOM     15  C8  MOL A   1      13.326 -17.489  -7.399  1.00  0.00     0.258 C 
ATOM     16  O9  MOL A   1      13.934 -18.144  -8.286  1.00  0.00    -0.271 OA
BRANCH  15  17
ATOM     17 C10  MOL A   1      14.091 -16.517  -6.551  1.00  0.00     0.167 C 
BRANCH  17  18
ATOM     18 O11  MOL A   1      14.879 -17.209  -5.585  1.00  0.00    -0.480 OA
BRANCH  18  19
ATOM     19 C12  MOL A   1      16.035 -16.651  -5.034  1.00  0.00     0.166 A 
ATOM     20 C13  MOL A   1      17.269 -16.699  -5.721  1.00  0.00     0.012 A 
ATOM     21 C21  MOL A   1      18.388 -16.057  -5.165  1.00  0.00    -0.054 A 
ATOM     22 C22  MOL A   1      18.297 -15.420  -3.928  1.00  0.00    -0.058 A 
ATOM     23 C23  MOL A   1      17.090 -15.417  -3.228  1.00  0.00    -0.016 A 
ATOM     24 C24  MOL A   1      15.951 -16.037  -3.773  1.00  0.00     0.161 A 
BRANCH  20  25
ATOM     25 C14  MOL A   1      17.420 -17.426  -7.039  1.00  0.00     0.028 C 
BRANCH  25  26
ATOM     26 N15  MOL A   1      17.283 -18.884  -6.843  1.00  0.00    -0.287 NA
ATOM     27 C16  MOL A   1      18.298 -19.403  -5.911  1.00  0.00     0.064 C 
ATOM     28 C17  MOL A   1      18.979 -20.218  -6.992  1.00  0.00     0.272 C 
ATOM     29 F18  MOL A   1      18.874 -21.586  -6.806  1.00  0.00    -0.204 F 
ATOM     30 F19  MOL A   1      20.263 -19.789  -7.289  1.00  0.00    -0.204 F 
ATOM     31 C20  MOL A   1      17.925 -19.652  -7.923  1.00  0.00     0.064 C 
ENDBRANCH  25  26
ENDBRANCH  20  25
BRANCH  24  32
ATOM     32 O25  MOL A   1      14.720 -16.057  -3.102  1.00  0.00    -0.493 OA
ATOM     33 C26  MOL A   1      14.016 -14.896  -2.674  1.00  0.00     0.078 C 
ENDBRANCH  24  32
ENDBRANCH  18  19
ENDBRANCH  17  18
ENDBRANCH  15  17
ENDBRANCH   8  14
ENDBRANCH   1   8
TORSDOF 10
ENDMDL
MODEL 161
REMARK VINA RESULT:    -7.484      6.793      9.820
REMARK INTER + INTRA:         -12.907
REMARK INTER:                 -11.415
REMARK INTRA:                  -1.492
REMARK UNBOUND:                -1.048
REMARK  10 active torsions:
REMARK  status: ('A' for Active; 'I' for Inactive)
REMARK   1   A    between atoms:  C27_1   and   C6_8  
REMARK   2   A    between atoms:  C6_8    and   C5_9  
REMARK   3   A    between atoms:  C5_9    and   C3_12 
REMARK   4   A    between atoms:  C6_8    and   N7_14 
REMARK   5   A    between atoms:  C8_15   and  C10_17 
REMARK   6   A    between atoms: C10_17   and  O11_18 
REMARK   7   A    between atoms: O11_18   and  C12_19 
REMARK   8   A    between atoms: C13_20   and  C14_25 
REMARK   9   A    between atoms: C14_25   and  N15_26 
REMARK   10  A    between atoms: C24_24   and  O25_32 
ROOT
ATOM      1 C27  MOL A   1       6.904 -20.313  -8.891  1.00  0.00    -0.024 A 
ATOM      2 C28  MOL A   1       5.919 -21.226  -8.471  1.00  0.00    -0.057 A 
ATOM      3 C29  MOL A   1       4.803 -20.782  -7.754  1.00  0.00    -0.061 A 
ATOM      4 C30  MOL A   1       4.659 -19.426  -7.449  1.00  0.00    -0.048 A 
ATOM      5 C31  MOL A   1       5.629 -18.507  -7.864  1.00  0.00     0.018 A 
ATOM      6 Br32 MOL A   1       5.420 -16.647  -7.465  1.00  0.00    -0.051 Br
ATOM      7 C33  MOL A   1       6.749 -18.947  -8.576  1.00  0.00    -0.043 A 
ENDROOT
BRANCH   1   8
ATOM      8  C6  MOL A   1       8.143 -20.810  -9.603  1.00  0.00     0.063 C 
BRANCH   8   9
ATOM      9  C5  MOL A   1       8.397 -22.287  -9.250  1.00  0.00     0.051 C 
BRANCH   9  12
ATOM     10  C1  MOL A   1      10.844 -24.693 -11.094  1.00  0.00     0.006 C 
ATOM     11  N2  MOL A   1      10.125 -23.979 -10.048  1.00  0.00    -0.359 N 
ATOM     12  C3  MOL A   1       9.128 -22.998 -10.352  1.00  0.00     0.222 C 
ATOM     13  O4  MOL A   1       8.853 -22.727 -11.553  1.00  0.00    -0.275 OA
ENDBRANCH   9  12
ENDBRANCH   8   9
BRANCH   8  14
ATOM     14  N7  MOL A   1       9.302 -19.987  -9.241  1.00  0.00    -0.346 N 
ATOM     15  C8  MOL A   1      10.196 -19.446 -10.216  1.00  0.00     0.258 C 
ATOM     16  O9  MOL A   1      10.014 -19.675 -11.441  1.00  0.00    -0.271 OA
BRANCH  15  17
ATOM     17 C10  MOL A   1      11.350 -18.588  -9.793  1.00  0.00     0.167 C 
BRANCH  17  18
ATOM     18 O11  MOL A   1      11.488 -18.601  -8.374  1.00  0.00    -0.480 OA
BRANCH  18  19
ATOM     19 C12  MOL A   1      12.213 -17.621  -7.690  1.00  0.00     0.166 A 
ATOM     20 C13  MOL A   1      13.627 -17.627  -7.687  1.00  0.00     0.012 A 
ATOM     21 C21  MOL A   1      14.315 -16.578  -7.054  1.00  0.00    -0.054 A 
ATOM     22 C22  MOL A   1      13.614 -15.568  -6.394  1.00  0.00    -0.058 A 
ATOM     23 C23  MOL A   1      12.220 -15.592  -6.355  1.00  0.00    -0.016 A 
ATOM     24 C24  MOL A   1      11.509 -16.622  -7.000  1.00  0.00     0.161 A 
BRANCH  20  25
ATOM     25 C14  MOL A   1      14.421 -18.733  -8.346  1.00  0.00     0.028 C 
BRANCH  25  26
ATOM     26 N15  MOL A   1      14.661 -19.834  -7.392  1.00  0.00    -0.287 NA
ATOM     27 C16  MOL A   1      16.018 -20.389  -7.535  1.00  0.00     0.064 C 
ATOM     28 C17  MOL A   1      15.499 -21.727  -8.023  1.00  0.00     0.272 C 
ATOM     29 F18  MOL A   1      15.738 -22.769  -7.144  1.00  0.00    -0.204 F 
ATOM     30 F19  MOL A   1      15.837 -22.011  -9.336  1.00  0.00    -0.204 F 
ATOM     31 C20  MOL A   1      14.119 -21.116  -7.875  1.00  0.00     0.064 C 
ENDBRANCH  25  26
ENDBRANCH  20  25
BRANCH  24  32
ATOM     32 O25  MOL A   1      10.108 -16.683  -6.984  1.00  0.00    -0.493 OA
ATOM     33 C26  MOL A   1       9.274 -16.356  -8.091  1.00  0.00     0.078 C 
ENDBRANCH  24  32
ENDBRANCH  18  19
ENDBRANCH  17  18
ENDBRANCH  15  17
ENDBRANCH   8  14
ENDBRANCH   1   8
TORSDOF 10
ENDMDL
MODEL 162
REMARK VINA RESULT:    -7.483      7.168     10.514
REMARK INTER + INTRA:         -12.906
REMARK INTER:                 -11.476
REMARK INTRA:                  -1.430
REMARK UNBOUND:                -1.048
REMARK  10 active torsions:
REMARK  status: ('A' for Active; 'I' for Inactive)
REMARK   1   A    between atoms:  C27_1   and   C6_8  
REMARK   2   A    between atoms:  C6_8    and   C5_9  
REMARK   3   A    between atoms:  C5_9    and   C3_12 
REMARK   4   A    between atoms:  C6_8    and   N7_14 
REMARK   5   A    between atoms:  C8_15   and  C10_17 
REMARK   6   A    between atoms: C10_17   and  O11_18 
REMARK   7   A    between atoms: O11_18   and  C12_19 
REMARK   8   A    between atoms: C13_20   and  C14_25 
REMARK   9   A    between atoms: C14_25   and  N15_26 
REMARK   10  A    between atoms: C24_24   and  O25_32 
ROOT
ATOM      1 C27  MOL A   1       5.865 -20.830  -8.552  1.00  0.00    -0.024 A 
ATOM      2 C28  MOL A   1       5.562 -20.889  -7.179  1.00  0.00    -0.057 A 
ATOM      3 C29  MOL A   1       4.353 -21.445  -6.745  1.00  0.00    -0.061 A 
ATOM      4 C30  MOL A   1       3.437 -21.945  -7.674  1.00  0.00    -0.048 A 
ATOM      5 C31  MOL A   1       3.727 -21.894  -9.042  1.00  0.00     0.018 A 
ATOM      6 Br32 MOL A   1       2.482 -22.598 -10.312  1.00  0.00    -0.051 Br
ATOM      7 C33  MOL A   1       4.932 -21.335  -9.481  1.00  0.00    -0.043 A 
ENDROOT
BRANCH   1   8
ATOM      8  C6  MOL A   1       7.141 -20.162  -9.017  1.00  0.00     0.063 C 
BRANCH   8   9
ATOM      9  C5  MOL A   1       7.389 -20.478 -10.503  1.00  0.00     0.051 C 
BRANCH   9  12
ATOM     10  C1  MOL A   1      10.683 -18.825 -11.766  1.00  0.00     0.006 C 
ATOM     11  N2  MOL A   1       9.742 -19.757 -11.161  1.00  0.00    -0.359 N 
ATOM     12  C3  MOL A   1       8.335 -19.492 -11.125  1.00  0.00     0.222 C 
ATOM     13  O4  MOL A   1       7.880 -18.424 -11.619  1.00  0.00    -0.275 OA
ENDBRANCH   9  12
ENDBRANCH   8   9
BRANCH   8  14
ATOM     14  N7  MOL A   1       8.274 -20.605  -8.199  1.00  0.00    -0.346 N 
ATOM     15  C8  MOL A   1       9.289 -19.709  -7.740  1.00  0.00     0.258 C 
ATOM     16  O9  MOL A   1       9.241 -18.488  -8.042  1.00  0.00    -0.271 OA
BRANCH  15  17
ATOM     17 C10  MOL A   1      10.412 -20.211  -6.883  1.00  0.00     0.167 C 
BRANCH  17  18
ATOM     18 O11  MOL A   1      11.558 -20.499  -7.681  1.00  0.00    -0.480 OA
BRANCH  18  19
ATOM     19 C12  MOL A   1      12.797 -20.811  -7.114  1.00  0.00     0.166 A 
ATOM     20 C13  MOL A   1      13.157 -22.149  -6.834  1.00  0.00     0.012 A 
ATOM     21 C21  MOL A   1      14.442 -22.423  -6.339  1.00  0.00    -0.054 A 
ATOM     22 C22  MOL A   1      15.338 -21.385  -6.079  1.00  0.00    -0.058 A 
ATOM     23 C23  MOL A   1      14.962 -20.062  -6.309  1.00  0.00    -0.016 A 
ATOM     24 C24  MOL A   1      13.687 -19.764  -6.824  1.00  0.00     0.161 A 
BRANCH  20  25
ATOM     25 C14  MOL A   1      12.194 -23.295  -7.052  1.00  0.00     0.028 C 
BRANCH  25  26
ATOM     26 N15  MOL A   1      12.186 -23.699  -8.473  1.00  0.00    -0.287 NA
ATOM     27 C16  MOL A   1      10.847 -23.557  -9.069  1.00  0.00     0.064 C 
ATOM     28 C17  MOL A   1      10.696 -25.053  -9.265  1.00  0.00     0.272 C 
ATOM     29 F18  MOL A   1      10.667 -25.439 -10.594  1.00  0.00    -0.204 F 
ATOM     30 F19  MOL A   1       9.693 -25.617  -8.495  1.00  0.00    -0.204 F 
ATOM     31 C20  MOL A   1      12.071 -25.158  -8.635  1.00  0.00     0.064 C 
ENDBRANCH  25  26
ENDBRANCH  20  25
BRANCH  24  32
ATOM     32 O25  MOL A   1      13.271 -18.447  -7.068  1.00  0.00    -0.493 OA
ATOM     33 C26  MOL A   1      14.152 -17.350  -7.285  1.00  0.00     0.078 C 
ENDBRANCH  24  32
ENDBRANCH  18  19
ENDBRANCH  17  18
ENDBRANCH  15  17
ENDBRANCH   8  14
ENDBRANCH   1   8
TORSDOF 10
ENDMDL
MODEL 163
REMARK VINA RESULT:    -7.478      5.837     10.420
REMARK INTER + INTRA:         -12.898
REMARK INTER:                 -11.577
REMARK INTRA:                  -1.321
REMARK UNBOUND:                -1.048
REMARK  10 active torsions:
REMARK  status: ('A' for Active; 'I' for Inactive)
REMARK   1   A    between atoms:  C27_1   and   C6_8  
REMARK   2   A    between atoms:  C6_8    and   C5_9  
REMARK   3   A    between atoms:  C5_9    and   C3_12 
REMARK   4   A    between atoms:  C6_8    and   N7_14 
REMARK   5   A    between atoms:  C8_15   and  C10_17 
REMARK   6   A    between atoms: C10_17   and  O11_18 
REMARK   7   A    between atoms: O11_18   and  C12_19 
REMARK   8   A    between atoms: C13_20   and  C14_25 
REMARK   9   A    between atoms: C14_25   and  N15_26 
REMARK   10  A    between atoms: C24_24   and  O25_32 
ROOT
ATOM      1 C27  MOL A   1       8.554 -17.783  -9.368  1.00  0.00    -0.024 A 
ATOM      2 C28  MOL A   1       8.246 -17.359 -10.674  1.00  0.00    -0.057 A 
ATOM      3 C29  MOL A   1       7.077 -16.633 -10.925  1.00  0.00    -0.061 A 
ATOM      4 C30  MOL A   1       6.205 -16.323  -9.877  1.00  0.00    -0.048 A 
ATOM      5 C31  MOL A   1       6.501 -16.736  -8.573  1.00  0.00     0.018 A 
ATOM      6 Br32 MOL A   1       5.318 -16.293  -7.137  1.00  0.00    -0.051 Br
ATOM      7 C33  MOL A   1       7.666 -17.467  -8.320  1.00  0.00    -0.043 A 
ENDROOT
BRANCH   1   8
ATOM      8  C6  MOL A   1       9.783 -18.630  -9.117  1.00  0.00     0.063 C 
BRANCH   8   9
ATOM      9  C5  MOL A   1       9.395 -19.907  -8.350  1.00  0.00     0.051 C 
BRANCH   9  12
ATOM     10  C1  MOL A   1       8.883 -22.459 -11.249  1.00  0.00     0.006 C 
ATOM     11  N2  MOL A   1       8.754 -21.289 -10.392  1.00  0.00    -0.359 N 
ATOM     12  C3  MOL A   1       9.544 -21.131  -9.208  1.00  0.00     0.222 C 
ATOM     13  O4  MOL A   1      10.375 -22.020  -8.879  1.00  0.00    -0.275 OA
ENDBRANCH   9  12
ENDBRANCH   8   9
BRANCH   8  14
ATOM     14  N7  MOL A   1      10.785 -17.863  -8.369  1.00  0.00    -0.346 N 
ATOM     15  C8  MOL A   1      12.176 -17.893  -8.693  1.00  0.00     0.258 C 
ATOM     16  O9  MOL A   1      12.591 -18.605  -9.647  1.00  0.00    -0.271 OA
BRANCH  15  17
ATOM     17 C10  MOL A   1      13.155 -17.069  -7.912  1.00  0.00     0.167 C 
BRANCH  17  18
ATOM     18 O11  MOL A   1      13.595 -17.779  -6.757  1.00  0.00    -0.480 OA
BRANCH  18  19
ATOM     19 C12  MOL A   1      14.950 -17.997  -6.492  1.00  0.00     0.166 A 
ATOM     20 C13  MOL A   1      15.743 -17.004  -5.873  1.00  0.00     0.012 A 
ATOM     21 C21  MOL A   1      17.080 -17.295  -5.554  1.00  0.00    -0.054 A 
ATOM     22 C22  MOL A   1      17.634 -18.531  -5.886  1.00  0.00    -0.058 A 
ATOM     23 C23  MOL A   1      16.863 -19.492  -6.542  1.00  0.00    -0.016 A 
ATOM     24 C24  MOL A   1      15.516 -19.230  -6.854  1.00  0.00     0.161 A 
BRANCH  20  25
ATOM     25 C14  MOL A   1      15.192 -15.634  -5.546  1.00  0.00     0.028 C 
BRANCH  25  26
ATOM     26 N15  MOL A   1      14.799 -15.562  -4.124  1.00  0.00    -0.287 NA
ATOM     27 C16  MOL A   1      13.487 -14.914  -3.957  1.00  0.00     0.064 C 
ATOM     28 C17  MOL A   1      14.084 -13.725  -3.231  1.00  0.00     0.272 C 
ATOM     29 F18  MOL A   1      13.705 -13.637  -1.903  1.00  0.00    -0.204 F 
ATOM     30 F19  MOL A   1      13.972 -12.532  -3.926  1.00  0.00    -0.204 F 
ATOM     31 C20  MOL A   1      15.418 -14.417  -3.434  1.00  0.00     0.064 C 
ENDBRANCH  25  26
ENDBRANCH  20  25
BRANCH  24  32
ATOM     32 O25  MOL A   1      14.708 -20.168  -7.513  1.00  0.00    -0.493 OA
ATOM     33 C26  MOL A   1      15.106 -20.908  -8.662  1.00  0.00     0.078 C 
ENDBRANCH  24  32
ENDBRANCH  18  19
ENDBRANCH  17  18
ENDBRANCH  15  17
ENDBRANCH   8  14
ENDBRANCH   1   8
TORSDOF 10
ENDMDL
MODEL 164
REMARK VINA RESULT:    -7.473      6.690     11.460
REMARK INTER + INTRA:         -12.890
REMARK INTER:                 -11.183
REMARK INTRA:                  -1.707
REMARK UNBOUND:                -1.048
REMARK  10 active torsions:
REMARK  status: ('A' for Active; 'I' for Inactive)
REMARK   1   A    between atoms:  C27_1   and   C6_8  
REMARK   2   A    between atoms:  C6_8    and   C5_9  
REMARK   3   A    between atoms:  C5_9    and   C3_12 
REMARK   4   A    between atoms:  C6_8    and   N7_14 
REMARK   5   A    between atoms:  C8_15   and  C10_17 
REMARK   6   A    between atoms: C10_17   and  O11_18 
REMARK   7   A    between atoms: O11_18   and  C12_19 
REMARK   8   A    between atoms: C13_20   and  C14_25 
REMARK   9   A    between atoms: C14_25   and  N15_26 
REMARK   10  A    between atoms: C24_24   and  O25_32 
ROOT
ATOM      1 C27  MOL A   1       9.586 -18.188  -9.134  1.00  0.00    -0.024 A 
ATOM      2 C28  MOL A   1       9.236 -17.181  -8.216  1.00  0.00    -0.057 A 
ATOM      3 C29  MOL A   1       8.254 -16.238  -8.541  1.00  0.00    -0.061 A 
ATOM      4 C30  MOL A   1       7.614 -16.291  -9.782  1.00  0.00    -0.048 A 
ATOM      5 C31  MOL A   1       7.950 -17.290 -10.702  1.00  0.00     0.018 A 
ATOM      6 Br32 MOL A   1       7.058 -17.375 -12.392  1.00  0.00    -0.051 Br
ATOM      7 C33  MOL A   1       8.935 -18.230 -10.384  1.00  0.00    -0.043 A 
ENDROOT
BRANCH   1   8
ATOM      8  C6  MOL A   1      10.700 -19.158  -8.805  1.00  0.00     0.063 C 
BRANCH   8   9
ATOM      9  C5  MOL A   1      10.158 -20.305  -7.932  1.00  0.00     0.051 C 
BRANCH   9  12
ATOM     10  C1  MOL A   1       9.342 -23.245 -10.354  1.00  0.00     0.006 C 
ATOM     11  N2  MOL A   1      10.065 -22.262  -9.560  1.00  0.00    -0.359 N 
ATOM     12  C3  MOL A   1       9.384 -21.300  -8.749  1.00  0.00     0.222 C 
ATOM     13  O4  MOL A   1       8.123 -21.282  -8.712  1.00  0.00    -0.275 OA
ENDBRANCH   9  12
ENDBRANCH   8   9
BRANCH   8  14
ATOM     14  N7  MOL A   1      11.795 -18.463  -8.121  1.00  0.00    -0.346 N 
ATOM     15  C8  MOL A   1      13.074 -18.261  -8.725  1.00  0.00     0.258 C 
ATOM     16  O9  MOL A   1      13.304 -18.695  -9.885  1.00  0.00    -0.271 OA
BRANCH  15  17
ATOM     17 C10  MOL A   1      14.151 -17.520  -7.992  1.00  0.00     0.167 C 
BRANCH  17  18
ATOM     18 O11  MOL A   1      14.286 -18.020  -6.664  1.00  0.00    -0.480 OA
BRANCH  18  19
ATOM     19 C12  MOL A   1      15.535 -18.246  -6.080  1.00  0.00     0.166 A 
ATOM     20 C13  MOL A   1      16.192 -19.490  -6.218  1.00  0.00     0.012 A 
ATOM     21 C21  MOL A   1      17.481 -19.647  -5.682  1.00  0.00    -0.054 A 
ATOM     22 C22  MOL A   1      18.088 -18.606  -4.979  1.00  0.00    -0.058 A 
ATOM     23 C23  MOL A   1      17.416 -17.397  -4.800  1.00  0.00    -0.016 A 
ATOM     24 C24  MOL A   1      16.133 -17.209  -5.345  1.00  0.00     0.161 A 
BRANCH  20  25
ATOM     25 C14  MOL A   1      15.545 -20.659  -6.928  1.00  0.00     0.028 C 
BRANCH  25  26
ATOM     26 N15  MOL A   1      14.805 -21.501  -5.965  1.00  0.00    -0.287 NA
ATOM     27 C16  MOL A   1      14.687 -22.890  -6.440  1.00  0.00     0.064 C 
ATOM     28 C17  MOL A   1      13.182 -22.788  -6.590  1.00  0.00     0.272 C 
ATOM     29 F18  MOL A   1      12.480 -23.589  -5.706  1.00  0.00    -0.204 F 
ATOM     30 F19  MOL A   1      12.745 -22.882  -7.901  1.00  0.00    -0.204 F 
ATOM     31 C20  MOL A   1      13.346 -21.359  -6.111  1.00  0.00     0.064 C 
ENDBRANCH  25  26
ENDBRANCH  20  25
BRANCH  24  32
ATOM     32 O25  MOL A   1      15.424 -16.009  -5.187  1.00  0.00    -0.493 OA
ATOM     33 C26  MOL A   1      14.654 -15.673  -4.038  1.00  0.00     0.078 C 
ENDBRANCH  24  32
ENDBRANCH  18  19
ENDBRANCH  17  18
ENDBRANCH  15  17
ENDBRANCH   8  14
ENDBRANCH   1   8
TORSDOF 10
ENDMDL
MODEL 165
REMARK VINA RESULT:    -7.468      6.506     10.291
REMARK INTER + INTRA:         -12.882
REMARK INTER:                 -11.159
REMARK INTRA:                  -1.723
REMARK UNBOUND:                -1.048
REMARK  10 active torsions:
REMARK  status: ('A' for Active; 'I' for Inactive)
REMARK   1   A    between atoms:  C27_1   and   C6_8  
REMARK   2   A    between atoms:  C6_8    and   C5_9  
REMARK   3   A    between atoms:  C5_9    and   C3_12 
REMARK   4   A    between atoms:  C6_8    and   N7_14 
REMARK   5   A    between atoms:  C8_15   and  C10_17 
REMARK   6   A    between atoms: C10_17   and  O11_18 
REMARK   7   A    between atoms: O11_18   and  C12_19 
REMARK   8   A    between atoms: C13_20   and  C14_25 
REMARK   9   A    between atoms: C14_25   and  N15_26 
REMARK   10  A    between atoms: C24_24   and  O25_32 
ROOT
ATOM      1 C27  MOL A   1       6.970 -19.390  -8.386  1.00  0.00    -0.024 A 
ATOM      2 C28  MOL A   1       6.058 -20.439  -8.170  1.00  0.00    -0.057 A 
ATOM      3 C29  MOL A   1       4.778 -20.172  -7.670  1.00  0.00    -0.061 A 
ATOM      4 C30  MOL A   1       4.397 -18.859  -7.381  1.00  0.00    -0.048 A 
ATOM      5 C31  MOL A   1       5.294 -17.806  -7.595  1.00  0.00     0.018 A 
ATOM      6 Br32 MOL A   1       4.764 -16.006  -7.221  1.00  0.00    -0.051 Br
ATOM      7 C33  MOL A   1       6.575 -18.069  -8.090  1.00  0.00    -0.043 A 
ENDROOT
BRANCH   1   8
ATOM      8  C6  MOL A   1       8.375 -19.693  -8.858  1.00  0.00     0.063 C 
BRANCH   8   9
ATOM      9  C5  MOL A   1       8.684 -21.189  -8.665  1.00  0.00     0.051 C 
BRANCH   9  12
ATOM     10  C1  MOL A   1      10.133 -23.813 -11.153  1.00  0.00     0.006 C 
ATOM     11  N2  MOL A   1       9.610 -23.185  -9.948  1.00  0.00    -0.359 N 
ATOM     12  C3  MOL A   1       9.230 -21.805  -9.921  1.00  0.00     0.222 C 
ATOM     13  O4  MOL A   1       9.350 -21.095 -10.957  1.00  0.00    -0.275 OA
ENDBRANCH   9  12
ENDBRANCH   8   9
BRANCH   8  14
ATOM     14  N7  MOL A   1       9.345 -18.868  -8.130  1.00  0.00    -0.346 N 
ATOM     15  C8  MOL A   1      10.489 -18.289  -8.762  1.00  0.00     0.258 C 
ATOM     16  O9  MOL A   1      10.707 -18.487  -9.987  1.00  0.00    -0.271 OA
BRANCH  15  17
ATOM     17 C10  MOL A   1      11.436 -17.431  -7.977  1.00  0.00     0.167 C 
BRANCH  17  18
ATOM     18 O11  MOL A   1      12.725 -17.426  -8.585  1.00  0.00    -0.480 OA
BRANCH  18  19
ATOM     19 C12  MOL A   1      13.895 -17.615  -7.843  1.00  0.00     0.166 A 
ATOM     20 C13  MOL A   1      14.433 -18.907  -7.644  1.00  0.00     0.012 A 
ATOM     21 C21  MOL A   1      15.653 -19.043  -6.961  1.00  0.00    -0.054 A 
ATOM     22 C22  MOL A   1      16.302 -17.923  -6.441  1.00  0.00    -0.058 A 
ATOM     23 C23  MOL A   1      15.743 -16.654  -6.595  1.00  0.00    -0.016 A 
ATOM     24 C24  MOL A   1      14.533 -16.491  -7.294  1.00  0.00     0.161 A 
BRANCH  20  25
ATOM     25 C14  MOL A   1      13.731 -20.149  -8.147  1.00  0.00     0.028 C 
BRANCH  25  26
ATOM     26 N15  MOL A   1      13.311 -20.998  -7.013  1.00  0.00    -0.287 NA
ATOM     27 C16  MOL A   1      13.890 -22.349  -7.104  1.00  0.00     0.064 C 
ATOM     28 C17  MOL A   1      12.535 -22.995  -7.311  1.00  0.00     0.272 C 
ATOM     29 F18  MOL A   1      12.142 -23.810  -6.263  1.00  0.00    -0.204 F 
ATOM     30 F19  MOL A   1      12.378 -23.574  -8.561  1.00  0.00    -0.204 F 
ATOM     31 C20  MOL A   1      11.978 -21.588  -7.225  1.00  0.00     0.064 C 
ENDBRANCH  25  26
ENDBRANCH  20  25
BRANCH  24  32
ATOM     32 O25  MOL A   1      13.937 -15.233  -7.470  1.00  0.00    -0.493 OA
ATOM     33 C26  MOL A   1      14.622 -14.076  -7.938  1.00  0.00     0.078 C 
ENDBRANCH  24  32
ENDBRANCH  18  19
ENDBRANCH  17  18
ENDBRANCH  15  17
ENDBRANCH   8  14
ENDBRANCH   1   8
TORSDOF 10
ENDMDL
MODEL 166
REMARK VINA RESULT:    -7.467      6.687     11.184
REMARK INTER + INTRA:         -12.880
REMARK INTER:                 -11.576
REMARK INTRA:                  -1.304
REMARK UNBOUND:                -1.048
REMARK  10 active torsions:
REMARK  status: ('A' for Active; 'I' for Inactive)
REMARK   1   A    between atoms:  C27_1   and   C6_8  
REMARK   2   A    between atoms:  C6_8    and   C5_9  
REMARK   3   A    between atoms:  C5_9    and   C3_12 
REMARK   4   A    between atoms:  C6_8    and   N7_14 
REMARK   5   A    between atoms:  C8_15   and  C10_17 
REMARK   6   A    between atoms: C10_17   and  O11_18 
REMARK   7   A    between atoms: O11_18   and  C12_19 
REMARK   8   A    between atoms: C13_20   and  C14_25 
REMARK   9   A    between atoms: C14_25   and  N15_26 
REMARK   10  A    between atoms: C24_24   and  O25_32 
ROOT
ATOM      1 C27  MOL A   1       9.665 -18.346  -8.996  1.00  0.00    -0.024 A 
ATOM      2 C28  MOL A   1       9.436 -17.288  -8.098  1.00  0.00    -0.057 A 
ATOM      3 C29  MOL A   1       8.518 -16.279  -8.411  1.00  0.00    -0.061 A 
ATOM      4 C30  MOL A   1       7.821 -16.317  -9.622  1.00  0.00    -0.048 A 
ATOM      5 C31  MOL A   1       8.037 -17.366 -10.523  1.00  0.00     0.018 A 
ATOM      6 Br32 MOL A   1       7.066 -17.428 -12.170  1.00  0.00    -0.051 Br
ATOM      7 C33  MOL A   1       8.957 -18.373 -10.215  1.00  0.00    -0.043 A 
ENDROOT
BRANCH   1   8
ATOM      8  C6  MOL A   1      10.711 -19.393  -8.682  1.00  0.00     0.063 C 
BRANCH   8   9
ATOM      9  C5  MOL A   1      10.038 -20.663  -8.132  1.00  0.00     0.051 C 
BRANCH   9  12
ATOM     10  C1  MOL A   1       9.542 -23.007 -11.203  1.00  0.00     0.006 C 
ATOM     11  N2  MOL A   1       9.406 -21.902 -10.265  1.00  0.00    -0.359 N 
ATOM     12  C3  MOL A   1      10.195 -21.822  -9.074  1.00  0.00     0.222 C 
ATOM     13  O4  MOL A   1      11.033 -22.727  -8.808  1.00  0.00    -0.275 OA
ENDBRANCH   9  12
ENDBRANCH   8   9
BRANCH   8  14
ATOM     14  N7  MOL A   1      11.685 -18.866  -7.719  1.00  0.00    -0.346 N 
ATOM     15  C8  MOL A   1      13.012 -19.384  -7.606  1.00  0.00     0.258 C 
ATOM     16  O9  MOL A   1      13.387 -20.337  -8.339  1.00  0.00    -0.271 OA
BRANCH  15  17
ATOM     17 C10  MOL A   1      13.976 -18.791  -6.622  1.00  0.00     0.167 C 
BRANCH  17  18
ATOM     18 O11  MOL A   1      15.005 -18.076  -7.302  1.00  0.00    -0.480 OA
BRANCH  18  19
ATOM     19 C12  MOL A   1      16.279 -17.909  -6.752  1.00  0.00     0.166 A 
ATOM     20 C13  MOL A   1      16.589 -16.784  -5.954  1.00  0.00     0.012 A 
ATOM     21 C21  MOL A   1      17.858 -16.697  -5.357  1.00  0.00    -0.054 A 
ATOM     22 C22  MOL A   1      18.818 -17.683  -5.587  1.00  0.00    -0.058 A 
ATOM     23 C23  MOL A   1      18.526 -18.766  -6.415  1.00  0.00    -0.016 A 
ATOM     24 C24  MOL A   1      17.255 -18.885  -7.008  1.00  0.00     0.161 A 
BRANCH  20  25
ATOM     25 C14  MOL A   1      15.593 -15.669  -5.726  1.00  0.00     0.028 C 
BRANCH  25  26
ATOM     26 N15  MOL A   1      14.958 -15.808  -4.400  1.00  0.00    -0.287 NA
ATOM     27 C16  MOL A   1      13.656 -15.121  -4.347  1.00  0.00     0.064 C 
ATOM     28 C17  MOL A   1      14.152 -14.104  -3.338  1.00  0.00     0.272 C 
ATOM     29 F18  MOL A   1      13.547 -14.213  -2.097  1.00  0.00    -0.204 F 
ATOM     30 F19  MOL A   1      14.199 -12.809  -3.827  1.00  0.00    -0.204 F 
ATOM     31 C20  MOL A   1      15.479 -14.831  -3.429  1.00  0.00     0.064 C 
ENDBRANCH  25  26
ENDBRANCH  20  25
BRANCH  24  32
ATOM     32 O25  MOL A   1      16.922 -19.958  -7.848  1.00  0.00    -0.493 OA
ATOM     33 C26  MOL A   1      17.768 -20.473  -8.871  1.00  0.00     0.078 C 
ENDBRANCH  24  32
ENDBRANCH  18  19
ENDBRANCH  17  18
ENDBRANCH  15  17
ENDBRANCH   8  14
ENDBRANCH   1   8
TORSDOF 10
ENDMDL
MODEL 167
REMARK VINA RESULT:    -7.454      6.672     10.365
REMARK INTER + INTRA:         -12.860
REMARK INTER:                 -11.179
REMARK INTRA:                  -1.681
REMARK UNBOUND:                -1.048
REMARK  10 active torsions:
REMARK  status: ('A' for Active; 'I' for Inactive)
REMARK   1   A    between atoms:  C27_1   and   C6_8  
REMARK   2   A    between atoms:  C6_8    and   C5_9  
REMARK   3   A    between atoms:  C5_9    and   C3_12 
REMARK   4   A    between atoms:  C6_8    and   N7_14 
REMARK   5   A    between atoms:  C8_15   and  C10_17 
REMARK   6   A    between atoms: C10_17   and  O11_18 
REMARK   7   A    between atoms: O11_18   and  C12_19 
REMARK   8   A    between atoms: C13_20   and  C14_25 
REMARK   9   A    between atoms: C14_25   and  N15_26 
REMARK   10  A    between atoms: C24_24   and  O25_32 
ROOT
ATOM      1 C27  MOL A   1       7.383 -19.490  -8.542  1.00  0.00    -0.024 A 
ATOM      2 C28  MOL A   1       6.548 -20.596  -8.304  1.00  0.00    -0.057 A 
ATOM      3 C29  MOL A   1       5.259 -20.413  -7.791  1.00  0.00    -0.061 A 
ATOM      4 C30  MOL A   1       4.792 -19.126  -7.512  1.00  0.00    -0.048 A 
ATOM      5 C31  MOL A   1       5.611 -18.016  -7.747  1.00  0.00     0.018 A 
ATOM      6 Br32 MOL A   1       4.963 -16.253  -7.385  1.00  0.00    -0.051 Br
ATOM      7 C33  MOL A   1       6.902 -18.196  -8.254  1.00  0.00    -0.043 A 
ENDROOT
BRANCH   1   8
ATOM      8  C6  MOL A   1       8.800 -19.701  -9.027  1.00  0.00     0.063 C 
BRANCH   8   9
ATOM      9  C5  MOL A   1       9.324 -21.067  -8.546  1.00  0.00     0.051 C 
BRANCH   9  12
ATOM     10  C1  MOL A   1      10.401 -24.216 -10.570  1.00  0.00     0.006 C 
ATOM     11  N2  MOL A   1      10.141 -23.294  -9.474  1.00  0.00    -0.359 N 
ATOM     12  C3  MOL A   1       9.591 -21.991  -9.699  1.00  0.00     0.222 C 
ATOM     13  O4  MOL A   1       9.324 -21.611 -10.872  1.00  0.00    -0.275 OA
ENDBRANCH   9  12
ENDBRANCH   8   9
BRANCH   8  14
ATOM     14  N7  MOL A   1       9.668 -18.619  -8.551  1.00  0.00    -0.346 N 
ATOM     15  C8  MOL A   1      10.903 -18.285  -9.188  1.00  0.00     0.258 C 
ATOM     16  O9  MOL A   1      11.294 -18.935 -10.195  1.00  0.00    -0.271 OA
BRANCH  15  17
ATOM     17 C10  MOL A   1      11.739 -17.151  -8.676  1.00  0.00     0.167 C 
BRANCH  17  18
ATOM     18 O11  MOL A   1      12.771 -17.639  -7.822  1.00  0.00    -0.480 OA
BRANCH  18  19
ATOM     19 C12  MOL A   1      14.122 -17.385  -8.072  1.00  0.00     0.166 A 
ATOM     20 C13  MOL A   1      14.967 -18.385  -8.606  1.00  0.00     0.012 A 
ATOM     21 C21  MOL A   1      16.299 -18.063  -8.916  1.00  0.00    -0.054 A 
ATOM     22 C22  MOL A   1      16.798 -16.786  -8.657  1.00  0.00    -0.058 A 
ATOM     23 C23  MOL A   1      15.976 -15.816  -8.083  1.00  0.00    -0.016 A 
ATOM     24 C24  MOL A   1      14.633 -16.109  -7.782  1.00  0.00     0.161 A 
BRANCH  20  25
ATOM     25 C14  MOL A   1      14.477 -19.795  -8.852  1.00  0.00     0.028 C 
BRANCH  25  26
ATOM     26 N15  MOL A   1      14.295 -20.508  -7.571  1.00  0.00    -0.287 NA
ATOM     27 C16  MOL A   1      14.943 -21.830  -7.590  1.00  0.00     0.064 C 
ATOM     28 C17  MOL A   1      13.619 -22.562  -7.496  1.00  0.00     0.272 C 
ATOM     29 F18  MOL A   1      13.448 -23.251  -6.308  1.00  0.00    -0.204 F 
ATOM     30 F19  MOL A   1      13.311 -23.305  -8.624  1.00  0.00    -0.204 F 
ATOM     31 C20  MOL A   1      12.988 -21.183  -7.492  1.00  0.00     0.064 C 
ENDBRANCH  25  26
ENDBRANCH  20  25
BRANCH  24  32
ATOM     32 O25  MOL A   1      13.774 -15.163  -7.204  1.00  0.00    -0.493 OA
ATOM     33 C26  MOL A   1      13.595 -14.987  -5.803  1.00  0.00     0.078 C 
ENDBRANCH  24  32
ENDBRANCH  18  19
ENDBRANCH  17  18
ENDBRANCH  15  17
ENDBRANCH   8  14
ENDBRANCH   1   8
TORSDOF 10
ENDMDL
MODEL 168
REMARK VINA RESULT:    -7.454      6.325     10.824
REMARK INTER + INTRA:         -12.859
REMARK INTER:                 -11.346
REMARK INTRA:                  -1.513
REMARK UNBOUND:                -1.048
REMARK  10 active torsions:
REMARK  status: ('A' for Active; 'I' for Inactive)
REMARK   1   A    between atoms:  C27_1   and   C6_8  
REMARK   2   A    between atoms:  C6_8    and   C5_9  
REMARK   3   A    between atoms:  C5_9    and   C3_12 
REMARK   4   A    between atoms:  C6_8    and   N7_14 
REMARK   5   A    between atoms:  C8_15   and  C10_17 
REMARK   6   A    between atoms: C10_17   and  O11_18 
REMARK   7   A    between atoms: O11_18   and  C12_19 
REMARK   8   A    between atoms: C13_20   and  C14_25 
REMARK   9   A    between atoms: C14_25   and  N15_26 
REMARK   10  A    between atoms: C24_24   and  O25_32 
ROOT
ATOM      1 C27  MOL A   1       8.294 -20.257  -9.086  1.00  0.00    -0.024 A 
ATOM      2 C28  MOL A   1       6.920 -20.553  -9.142  1.00  0.00    -0.057 A 
ATOM      3 C29  MOL A   1       6.486 -21.837  -9.487  1.00  0.00    -0.061 A 
ATOM      4 C30  MOL A   1       7.417 -22.837  -9.780  1.00  0.00    -0.048 A 
ATOM      5 C31  MOL A   1       8.787 -22.557  -9.726  1.00  0.00     0.018 A 
ATOM      6 Br32 MOL A   1      10.062 -23.932 -10.106  1.00  0.00    -0.051 Br
ATOM      7 C33  MOL A   1       9.225 -21.273  -9.386  1.00  0.00    -0.043 A 
ENDROOT
BRANCH   1   8
ATOM      8  C6  MOL A   1       8.754 -18.848  -8.783  1.00  0.00     0.063 C 
BRANCH   8   9
ATOM      9  C5  MOL A   1       7.763 -17.831  -9.377  1.00  0.00     0.051 C 
BRANCH   9  12
ATOM     10  C1  MOL A   1       5.246 -16.257  -6.854  1.00  0.00     0.006 C 
ATOM     11  N2  MOL A   1       5.830 -17.100  -7.888  1.00  0.00    -0.359 N 
ATOM     12  C3  MOL A   1       7.187 -16.938  -8.316  1.00  0.00     0.222 C 
ATOM     13  O4  MOL A   1       7.910 -16.043  -7.800  1.00  0.00    -0.275 OA
ENDBRANCH   9  12
ENDBRANCH   8   9
BRANCH   8  14
ATOM     14  N7  MOL A   1      10.102 -18.627  -9.316  1.00  0.00    -0.346 N 
ATOM     15  C8  MOL A   1      11.140 -18.009  -8.552  1.00  0.00     0.258 C 
ATOM     16  O9  MOL A   1      10.916 -17.618  -7.376  1.00  0.00    -0.271 OA
BRANCH  15  17
ATOM     17 C10  MOL A   1      12.509 -17.831  -9.137  1.00  0.00     0.167 C 
BRANCH  17  18
ATOM     18 O11  MOL A   1      13.496 -17.847  -8.108  1.00  0.00    -0.480 OA
BRANCH  18  19
ATOM     19 C12  MOL A   1      14.605 -16.996  -8.132  1.00  0.00     0.166 A 
ATOM     20 C13  MOL A   1      15.829 -17.406  -8.707  1.00  0.00     0.012 A 
ATOM     21 C21  MOL A   1      16.893 -16.491  -8.780  1.00  0.00    -0.054 A 
ATOM     22 C22  MOL A   1      16.760 -15.208  -8.249  1.00  0.00    -0.058 A 
ATOM     23 C23  MOL A   1      15.568 -14.822  -7.636  1.00  0.00    -0.016 A 
ATOM     24 C24  MOL A   1      14.482 -15.715  -7.569  1.00  0.00     0.161 A 
BRANCH  20  25
ATOM     25 C14  MOL A   1      16.027 -18.806  -9.245  1.00  0.00     0.028 C 
BRANCH  25  26
ATOM     26 N15  MOL A   1      16.247 -19.758  -8.138  1.00  0.00    -0.287 NA
ATOM     27 C16  MOL A   1      17.444 -20.586  -8.365  1.00  0.00     0.064 C 
ATOM     28 C17  MOL A   1      16.629 -21.857  -8.498  1.00  0.00     0.272 C 
ATOM     29 F18  MOL A   1      16.844 -22.765  -7.476  1.00  0.00    -0.204 F 
ATOM     30 F19  MOL A   1      16.672 -22.417  -9.764  1.00  0.00    -0.204 F 
ATOM     31 C20  MOL A   1      15.420 -20.969  -8.274  1.00  0.00     0.064 C 
ENDBRANCH  25  26
ENDBRANCH  20  25
BRANCH  24  32
ATOM     32 O25  MOL A   1      13.267 -15.366  -6.962  1.00  0.00    -0.493 OA
ATOM     33 C26  MOL A   1      13.153 -14.742  -5.687  1.00  0.00     0.078 C 
ENDBRANCH  24  32
ENDBRANCH  18  19
ENDBRANCH  17  18
ENDBRANCH  15  17
ENDBRANCH   8  14
ENDBRANCH   1   8
TORSDOF 10
ENDMDL
MODEL 169
REMARK VINA RESULT:    -7.453      6.335     10.936
REMARK INTER + INTRA:         -12.859
REMARK INTER:                 -11.985
REMARK INTRA:                  -0.875
REMARK UNBOUND:                -1.048
REMARK  10 active torsions:
REMARK  status: ('A' for Active; 'I' for Inactive)
REMARK   1   A    between atoms:  C27_1   and   C6_8  
REMARK   2   A    between atoms:  C6_8    and   C5_9  
REMARK   3   A    between atoms:  C5_9    and   C3_12 
REMARK   4   A    between atoms:  C6_8    and   N7_14 
REMARK   5   A    between atoms:  C8_15   and  C10_17 
REMARK   6   A    between atoms: C10_17   and  O11_18 
REMARK   7   A    between atoms: O11_18   and  C12_19 
REMARK   8   A    between atoms: C13_20   and  C14_25 
REMARK   9   A    between atoms: C14_25   and  N15_26 
REMARK   10  A    between atoms: C24_24   and  O25_32 
ROOT
ATOM      1 C27  MOL A   1       9.879 -18.237  -9.162  1.00  0.00    -0.024 A 
ATOM      2 C28  MOL A   1       9.591 -17.246  -8.206  1.00  0.00    -0.057 A 
ATOM      3 C29  MOL A   1       8.574 -16.315  -8.436  1.00  0.00    -0.061 A 
ATOM      4 C30  MOL A   1       7.834 -16.362  -9.621  1.00  0.00    -0.048 A 
ATOM      5 C31  MOL A   1       8.107 -17.345 -10.579  1.00  0.00     0.018 A 
ATOM      6 Br32 MOL A   1       7.080 -17.423 -12.191  1.00  0.00    -0.051 Br
ATOM      7 C33  MOL A   1       9.128 -18.275 -10.354  1.00  0.00    -0.043 A 
ENDROOT
BRANCH   1   8
ATOM      8  C6  MOL A   1      11.028 -19.196  -8.937  1.00  0.00     0.063 C 
BRANCH   8   9
ATOM      9  C5  MOL A   1      10.581 -20.351  -8.024  1.00  0.00     0.051 C 
BRANCH   9  12
ATOM     10  C1  MOL A   1       7.022 -21.693  -8.863  1.00  0.00     0.006 C 
ATOM     11  N2  MOL A   1       8.115 -20.939  -8.266  1.00  0.00    -0.359 N 
ATOM     12  C3  MOL A   1       9.477 -21.153  -8.650  1.00  0.00     0.222 C 
ATOM     13  O4  MOL A   1       9.760 -22.018  -9.523  1.00  0.00    -0.275 OA
ENDBRANCH   9  12
ENDBRANCH   8   9
BRANCH   8  14
ATOM     14  N7  MOL A   1      12.173 -18.488  -8.353  1.00  0.00    -0.346 N 
ATOM     15  C8  MOL A   1      13.435 -18.388  -9.015  1.00  0.00     0.258 C 
ATOM     16  O9  MOL A   1      13.606 -18.926 -10.142  1.00  0.00    -0.271 OA
BRANCH  15  17
ATOM     17 C10  MOL A   1      14.564 -17.630  -8.384  1.00  0.00     0.167 C 
BRANCH  17  18
ATOM     18 O11  MOL A   1      14.860 -18.159  -7.094  1.00  0.00    -0.480 OA
BRANCH  18  19
ATOM     19 C12  MOL A   1      16.132 -18.055  -6.524  1.00  0.00     0.166 A 
ATOM     20 C13  MOL A   1      16.577 -16.844  -5.945  1.00  0.00     0.012 A 
ATOM     21 C21  MOL A   1      17.831 -16.807  -5.313  1.00  0.00    -0.054 A 
ATOM     22 C22  MOL A   1      18.650 -17.936  -5.298  1.00  0.00    -0.058 A 
ATOM     23 C23  MOL A   1      18.230 -19.115  -5.914  1.00  0.00    -0.016 A 
ATOM     24 C24  MOL A   1      16.969 -19.182  -6.536  1.00  0.00     0.161 A 
BRANCH  20  25
ATOM     25 C14  MOL A   1      15.740 -15.585  -5.989  1.00  0.00     0.028 C 
BRANCH  25  26
ATOM     26 N15  MOL A   1      14.472 -15.784  -5.257  1.00  0.00    -0.287 NA
ATOM     27 C16  MOL A   1      13.670 -14.549  -5.218  1.00  0.00     0.064 C 
ATOM     28 C17  MOL A   1      13.819 -14.413  -3.715  1.00  0.00     0.272 C 
ATOM     29 F18  MOL A   1      12.632 -14.577  -3.022  1.00  0.00    -0.204 F 
ATOM     30 F19  MOL A   1      14.548 -13.301  -3.325  1.00  0.00    -0.204 F 
ATOM     31 C20  MOL A   1      14.650 -15.679  -3.798  1.00  0.00     0.064 C 
ENDBRANCH  25  26
ENDBRANCH  20  25
BRANCH  24  32
ATOM     32 O25  MOL A   1      16.510 -20.348  -7.166  1.00  0.00    -0.493 OA
ATOM     33 C26  MOL A   1      16.072 -21.516  -6.481  1.00  0.00     0.078 C 
ENDBRANCH  24  32
ENDBRANCH  18  19
ENDBRANCH  17  18
ENDBRANCH  15  17
ENDBRANCH   8  14
ENDBRANCH   1   8
TORSDOF 10
ENDMDL
MODEL 170
REMARK VINA RESULT:    -7.453      7.202     11.722
REMARK INTER + INTRA:         -12.859
REMARK INTER:                 -11.246
REMARK INTRA:                  -1.613
REMARK UNBOUND:                -1.048
REMARK  10 active torsions:
REMARK  status: ('A' for Active; 'I' for Inactive)
REMARK   1   A    between atoms:  C27_1   and   C6_8  
REMARK   2   A    between atoms:  C6_8    and   C5_9  
REMARK   3   A    between atoms:  C5_9    and   C3_12 
REMARK   4   A    between atoms:  C6_8    and   N7_14 
REMARK   5   A    between atoms:  C8_15   and  C10_17 
REMARK   6   A    between atoms: C10_17   and  O11_18 
REMARK   7   A    between atoms: O11_18   and  C12_19 
REMARK   8   A    between atoms: C13_20   and  C14_25 
REMARK   9   A    between atoms: C14_25   and  N15_26 
REMARK   10  A    between atoms: C24_24   and  O25_32 
ROOT
ATOM      1 C27  MOL A   1       9.898 -18.272  -8.970  1.00  0.00    -0.024 A 
ATOM      2 C28  MOL A   1       9.581 -17.221  -8.089  1.00  0.00    -0.057 A 
ATOM      3 C29  MOL A   1       8.565 -16.313  -8.408  1.00  0.00    -0.061 A 
ATOM      4 C30  MOL A   1       7.858 -16.444  -9.606  1.00  0.00    -0.048 A 
ATOM      5 C31  MOL A   1       8.161 -17.486 -10.489  1.00  0.00     0.018 A 
ATOM      6 Br32 MOL A   1       7.177 -17.677 -12.119  1.00  0.00    -0.051 Br
ATOM      7 C33  MOL A   1       9.179 -18.393 -10.177  1.00  0.00    -0.043 A 
ENDROOT
BRANCH   1   8
ATOM      8  C6  MOL A   1      11.045 -19.206  -8.652  1.00  0.00     0.063 C 
BRANCH   8   9
ATOM      9  C5  MOL A   1      10.542 -20.392  -7.811  1.00  0.00     0.051 C 
BRANCH   9  12
ATOM     10  C1  MOL A   1       9.675 -23.204 -10.363  1.00  0.00     0.006 C 
ATOM     11  N2  MOL A   1       9.634 -21.970  -9.592  1.00  0.00    -0.359 N 
ATOM     12  C3  MOL A   1      10.605 -21.679  -8.581  1.00  0.00     0.222 C 
ATOM     13  O4  MOL A   1      11.525 -22.505  -8.332  1.00  0.00    -0.275 OA
ENDBRANCH   9  12
ENDBRANCH   8   9
BRANCH   8  14
ATOM     14  N7  MOL A   1      12.107 -18.483  -7.943  1.00  0.00    -0.346 N 
ATOM     15  C8  MOL A   1      13.406 -18.281  -8.503  1.00  0.00     0.258 C 
ATOM     16  O9  MOL A   1      13.684 -18.738  -9.644  1.00  0.00    -0.271 OA
BRANCH  15  17
ATOM     17 C10  MOL A   1      14.447 -17.513  -7.746  1.00  0.00     0.167 C 
BRANCH  17  18
ATOM     18 O11  MOL A   1      14.268 -17.679  -6.342  1.00  0.00    -0.480 OA
BRANCH  18  19
ATOM     19 C12  MOL A   1      15.349 -17.779  -5.463  1.00  0.00     0.166 A 
ATOM     20 C13  MOL A   1      15.979 -19.020  -5.215  1.00  0.00     0.012 A 
ATOM     21 C21  MOL A   1      17.112 -19.061  -4.386  1.00  0.00    -0.054 A 
ATOM     22 C22  MOL A   1      17.583 -17.900  -3.774  1.00  0.00    -0.058 A 
ATOM     23 C23  MOL A   1      16.930 -16.684  -3.979  1.00  0.00    -0.016 A 
ATOM     24 C24  MOL A   1      15.805 -16.615  -4.822  1.00  0.00     0.161 A 
BRANCH  20  25
ATOM     25 C14  MOL A   1      15.464 -20.308  -5.819  1.00  0.00     0.028 C 
BRANCH  25  26
ATOM     26 N15  MOL A   1      16.497 -20.925  -6.677  1.00  0.00    -0.287 NA
ATOM     27 C16  MOL A   1      16.169 -20.784  -8.106  1.00  0.00     0.064 C 
ATOM     28 C17  MOL A   1      15.984 -22.278  -8.285  1.00  0.00     0.272 C 
ATOM     29 F18  MOL A   1      16.935 -22.861  -9.104  1.00  0.00    -0.204 F 
ATOM     30 F19  MOL A   1      14.682 -22.647  -8.585  1.00  0.00    -0.204 F 
ATOM     31 C20  MOL A   1      16.313 -22.380  -6.809  1.00  0.00     0.064 C 
ENDBRANCH  25  26
ENDBRANCH  20  25
BRANCH  24  32
ATOM     32 O25  MOL A   1      15.120 -15.414  -5.053  1.00  0.00    -0.493 OA
ATOM     33 C26  MOL A   1      14.576 -14.586  -4.030  1.00  0.00     0.078 C 
ENDBRANCH  24  32
ENDBRANCH  18  19
ENDBRANCH  17  18
ENDBRANCH  15  17
ENDBRANCH   8  14
ENDBRANCH   1   8
TORSDOF 10
ENDMDL
MODEL 171
REMARK VINA RESULT:    -7.453      8.537     11.916
REMARK INTER + INTRA:         -12.858
REMARK INTER:                 -10.491
REMARK INTRA:                  -2.367
REMARK UNBOUND:                -1.048
REMARK  10 active torsions:
REMARK  status: ('A' for Active; 'I' for Inactive)
REMARK   1   A    between atoms:  C27_1   and   C6_8  
REMARK   2   A    between atoms:  C6_8    and   C5_9  
REMARK   3   A    between atoms:  C5_9    and   C3_12 
REMARK   4   A    between atoms:  C6_8    and   N7_14 
REMARK   5   A    between atoms:  C8_15   and  C10_17 
REMARK   6   A    between atoms: C10_17   and  O11_18 
REMARK   7   A    between atoms: O11_18   and  C12_19 
REMARK   8   A    between atoms: C13_20   and  C14_25 
REMARK   9   A    between atoms: C14_25   and  N15_26 
REMARK   10  A    between atoms: C24_24   and  O25_32 
ROOT
ATOM      1 C27  MOL A   1      17.555 -18.805  -4.646  1.00  0.00    -0.024 A 
ATOM      2 C28  MOL A   1      18.018 -17.480  -4.549  1.00  0.00    -0.057 A 
ATOM      3 C29  MOL A   1      17.648 -16.679  -3.462  1.00  0.00    -0.061 A 
ATOM      4 C30  MOL A   1      16.815 -17.192  -2.464  1.00  0.00    -0.048 A 
ATOM      5 C31  MOL A   1      16.350 -18.509  -2.547  1.00  0.00     0.018 A 
ATOM      6 Br32 MOL A   1      15.227 -19.217  -1.170  1.00  0.00    -0.051 Br
ATOM      7 C33  MOL A   1      16.713 -19.311  -3.634  1.00  0.00    -0.043 A 
ENDROOT
BRANCH   1   8
ATOM      8  C6  MOL A   1      17.899 -19.641  -5.860  1.00  0.00     0.063 C 
BRANCH   8   9
ATOM      9  C5  MOL A   1      19.099 -19.024  -6.601  1.00  0.00     0.051 C 
BRANCH   9  12
ATOM     10  C1  MOL A   1      20.300 -22.194  -8.519  1.00  0.00     0.006 C 
ATOM     11  N2  MOL A   1      19.843 -21.302  -7.464  1.00  0.00    -0.359 N 
ATOM     12  C3  MOL A   1      19.580 -19.916  -7.708  1.00  0.00     0.222 C 
ATOM     13  O4  MOL A   1      19.747 -19.435  -8.862  1.00  0.00    -0.275 OA
ENDBRANCH   9  12
ENDBRANCH   8   9
BRANCH   8  14
ATOM     14  N7  MOL A   1      16.739 -19.744  -6.751  1.00  0.00    -0.346 N 
ATOM     15  C8  MOL A   1      16.040 -20.972  -6.965  1.00  0.00     0.258 C 
ATOM     16  O9  MOL A   1      16.417 -22.026  -6.388  1.00  0.00    -0.271 OA
BRANCH  15  17
ATOM     17 C10  MOL A   1      14.844 -21.016  -7.868  1.00  0.00     0.167 C 
BRANCH  17  18
ATOM     18 O11  MOL A   1      13.739 -20.344  -7.266  1.00  0.00    -0.480 OA
BRANCH  18  19
ATOM     19 C12  MOL A   1      12.688 -19.821  -8.022  1.00  0.00     0.166 A 
ATOM     20 C13  MOL A   1      12.747 -18.510  -8.548  1.00  0.00     0.012 A 
ATOM     21 C21  MOL A   1      11.702 -18.053  -9.369  1.00  0.00    -0.054 A 
ATOM     22 C22  MOL A   1      10.596 -18.864  -9.625  1.00  0.00    -0.058 A 
ATOM     23 C23  MOL A   1      10.517 -20.139  -9.064  1.00  0.00    -0.016 A 
ATOM     24 C24  MOL A   1      11.560 -20.626  -8.255  1.00  0.00     0.161 A 
BRANCH  20  25
ATOM     25 C14  MOL A   1      13.904 -17.583  -8.249  1.00  0.00     0.028 C 
BRANCH  25  26
ATOM     26 N15  MOL A   1      13.648 -16.820  -7.011  1.00  0.00    -0.287 NA
ATOM     27 C16  MOL A   1      14.096 -15.423  -7.133  1.00  0.00     0.064 C 
ATOM     28 C17  MOL A   1      15.177 -15.601  -6.085  1.00  0.00     0.272 C 
ATOM     29 F18  MOL A   1      14.956 -14.874  -4.929  1.00  0.00    -0.204 F 
ATOM     30 F19  MOL A   1      16.463 -15.482  -6.586  1.00  0.00    -0.204 F 
ATOM     31 C20  MOL A   1      14.695 -17.036  -5.998  1.00  0.00     0.064 C 
ENDBRANCH  25  26
ENDBRANCH  20  25
BRANCH  24  32
ATOM     32 O25  MOL A   1      11.518 -21.900  -7.671  1.00  0.00    -0.493 OA
ATOM     33 C26  MOL A   1      11.733 -23.117  -8.378  1.00  0.00     0.078 C 
ENDBRANCH  24  32
ENDBRANCH  18  19
ENDBRANCH  17  18
ENDBRANCH  15  17
ENDBRANCH   8  14
ENDBRANCH   1   8
TORSDOF 10
ENDMDL
MODEL 172
REMARK VINA RESULT:    -7.451      5.583     10.266
REMARK INTER + INTRA:         -12.855
REMARK INTER:                 -11.540
REMARK INTRA:                  -1.316
REMARK UNBOUND:                -1.048
REMARK  10 active torsions:
REMARK  status: ('A' for Active; 'I' for Inactive)
REMARK   1   A    between atoms:  C27_1   and   C6_8  
REMARK   2   A    between atoms:  C6_8    and   C5_9  
REMARK   3   A    between atoms:  C5_9    and   C3_12 
REMARK   4   A    between atoms:  C6_8    and   N7_14 
REMARK   5   A    between atoms:  C8_15   and  C10_17 
REMARK   6   A    between atoms: C10_17   and  O11_18 
REMARK   7   A    between atoms: O11_18   and  C12_19 
REMARK   8   A    between atoms: C13_20   and  C14_25 
REMARK   9   A    between atoms: C14_25   and  N15_26 
REMARK   10  A    between atoms: C24_24   and  O25_32 
ROOT
ATOM      1 C27  MOL A   1       7.080 -17.744  -9.165  1.00  0.00    -0.024 A 
ATOM      2 C28  MOL A   1       6.361 -17.597  -7.964  1.00  0.00    -0.057 A 
ATOM      3 C29  MOL A   1       5.419 -16.573  -7.825  1.00  0.00    -0.061 A 
ATOM      4 C30  MOL A   1       5.185 -15.686  -8.879  1.00  0.00    -0.048 A 
ATOM      5 C31  MOL A   1       5.891 -15.822 -10.080  1.00  0.00     0.018 A 
ATOM      6 Br32 MOL A   1       5.555 -14.621 -11.530  1.00  0.00    -0.051 Br
ATOM      7 C33  MOL A   1       6.838 -16.842 -10.221  1.00  0.00    -0.043 A 
ENDROOT
BRANCH   1   8
ATOM      8  C6  MOL A   1       8.149 -18.809  -9.282  1.00  0.00     0.063 C 
BRANCH   8   9
ATOM      9  C5  MOL A   1       7.595 -20.165  -8.810  1.00  0.00     0.051 C 
BRANCH   9  12
ATOM     10  C1  MOL A   1       9.394 -23.320 -10.218  1.00  0.00     0.006 C 
ATOM     11  N2  MOL A   1       8.992 -22.227  -9.345  1.00  0.00    -0.359 N 
ATOM     12  C3  MOL A   1       7.996 -21.276  -9.737  1.00  0.00     0.222 C 
ATOM     13  O4  MOL A   1       7.443 -21.369 -10.867  1.00  0.00    -0.275 OA
ENDBRANCH   9  12
ENDBRANCH   8   9
BRANCH   8  14
ATOM     14  N7  MOL A   1       9.330 -18.432  -8.498  1.00  0.00    -0.346 N 
ATOM     15  C8  MOL A   1      10.653 -18.460  -9.039  1.00  0.00     0.258 C 
ATOM     16  O9  MOL A   1      10.845 -18.828 -10.228  1.00  0.00    -0.271 OA
BRANCH  15  17
ATOM     17 C10  MOL A   1      11.823 -18.039  -8.202  1.00  0.00     0.167 C 
BRANCH  17  18
ATOM     18 O11  MOL A   1      12.836 -19.042  -8.221  1.00  0.00    -0.480 OA
BRANCH  18  19
ATOM     19 C12  MOL A   1      13.465 -19.483  -7.053  1.00  0.00     0.166 A 
ATOM     20 C13  MOL A   1      14.517 -18.744  -6.466  1.00  0.00     0.012 A 
ATOM     21 C21  MOL A   1      15.067 -19.183  -5.249  1.00  0.00    -0.054 A 
ATOM     22 C22  MOL A   1      14.615 -20.359  -4.651  1.00  0.00    -0.058 A 
ATOM     23 C23  MOL A   1      13.611 -21.113  -5.259  1.00  0.00    -0.016 A 
ATOM     24 C24  MOL A   1      13.031 -20.683  -6.467  1.00  0.00     0.161 A 
BRANCH  20  25
ATOM     25 C14  MOL A   1      15.070 -17.493  -7.112  1.00  0.00     0.028 C 
BRANCH  25  26
ATOM     26 N15  MOL A   1      16.165 -16.931  -6.295  1.00  0.00    -0.287 NA
ATOM     27 C16  MOL A   1      15.929 -15.512  -5.976  1.00  0.00     0.064 C 
ATOM     28 C17  MOL A   1      17.116 -15.055  -6.800  1.00  0.00     0.272 C 
ATOM     29 F18  MOL A   1      18.139 -14.507  -6.045  1.00  0.00    -0.204 F 
ATOM     30 F19  MOL A   1      16.768 -14.297  -7.907  1.00  0.00    -0.204 F 
ATOM     31 C20  MOL A   1      17.318 -16.524  -7.116  1.00  0.00     0.064 C 
ENDBRANCH  25  26
ENDBRANCH  20  25
BRANCH  24  32
ATOM     32 O25  MOL A   1      12.020 -21.413  -7.110  1.00  0.00    -0.493 OA
ATOM     33 C26  MOL A   1      12.240 -22.600  -7.864  1.00  0.00     0.078 C 
ENDBRANCH  24  32
ENDBRANCH  18  19
ENDBRANCH  17  18
ENDBRANCH  15  17
ENDBRANCH   8  14
ENDBRANCH   1   8
TORSDOF 10
ENDMDL
MODEL 173
REMARK VINA RESULT:    -7.444      5.386     10.415
REMARK INTER + INTRA:         -12.844
REMARK INTER:                 -11.687
REMARK INTRA:                  -1.157
REMARK UNBOUND:                -1.048
REMARK  10 active torsions:
REMARK  status: ('A' for Active; 'I' for Inactive)
REMARK   1   A    between atoms:  C27_1   and   C6_8  
REMARK   2   A    between atoms:  C6_8    and   C5_9  
REMARK   3   A    between atoms:  C5_9    and   C3_12 
REMARK   4   A    between atoms:  C6_8    and   N7_14 
REMARK   5   A    between atoms:  C8_15   and  C10_17 
REMARK   6   A    between atoms: C10_17   and  O11_18 
REMARK   7   A    between atoms: O11_18   and  C12_19 
REMARK   8   A    between atoms: C13_20   and  C14_25 
REMARK   9   A    between atoms: C14_25   and  N15_26 
REMARK   10  A    between atoms: C24_24   and  O25_32 
ROOT
ATOM      1 C27  MOL A   1       7.567 -18.137  -9.390  1.00  0.00    -0.024 A 
ATOM      2 C28  MOL A   1       7.547 -17.340 -10.549  1.00  0.00    -0.057 A 
ATOM      3 C29  MOL A   1       6.738 -16.201 -10.611  1.00  0.00    -0.061 A 
ATOM      4 C30  MOL A   1       5.941 -15.847  -9.520  1.00  0.00    -0.048 A 
ATOM      5 C31  MOL A   1       5.953 -16.628  -8.359  1.00  0.00     0.018 A 
ATOM      6 Br32 MOL A   1       4.878 -16.130  -6.857  1.00  0.00    -0.051 Br
ATOM      7 C33  MOL A   1       6.757 -17.771  -8.295  1.00  0.00    -0.043 A 
ENDROOT
BRANCH   1   8
ATOM      8  C6  MOL A   1       8.389 -19.407  -9.357  1.00  0.00     0.063 C 
BRANCH   8   9
ATOM      9  C5  MOL A   1       7.589 -20.536  -8.683  1.00  0.00     0.051 C 
BRANCH   9  12
ATOM     10  C1  MOL A   1       4.249 -22.041 -10.004  1.00  0.00     0.006 C 
ATOM     11  N2  MOL A   1       5.269 -21.488  -9.126  1.00  0.00    -0.359 N 
ATOM     12  C3  MOL A   1       6.562 -21.114  -9.613  1.00  0.00     0.222 C 
ATOM     13  O4  MOL A   1       6.847 -21.266 -10.832  1.00  0.00    -0.275 OA
ENDBRANCH   9  12
ENDBRANCH   8   9
BRANCH   8  14
ATOM     14  N7  MOL A   1       9.653 -19.176  -8.649  1.00  0.00    -0.346 N 
ATOM     15  C8  MOL A   1      10.895 -18.994  -9.333  1.00  0.00     0.258 C 
ATOM     16  O9  MOL A   1      10.941 -19.040 -10.591  1.00  0.00    -0.271 OA
BRANCH  15  17
ATOM     17 C10  MOL A   1      12.154 -18.735  -8.561  1.00  0.00     0.167 C 
BRANCH  17  18
ATOM     18 O11  MOL A   1      13.238 -19.481  -9.109  1.00  0.00    -0.480 OA
BRANCH  18  19
ATOM     19 C12  MOL A   1      14.210 -20.078  -8.302  1.00  0.00     0.166 A 
ATOM     20 C13  MOL A   1      15.477 -19.478  -8.118  1.00  0.00     0.012 A 
ATOM     21 C21  MOL A   1      16.395 -20.072  -7.236  1.00  0.00    -0.054 A 
ATOM     22 C22  MOL A   1      16.082 -21.265  -6.585  1.00  0.00    -0.058 A 
ATOM     23 C23  MOL A   1      14.850 -21.882  -6.807  1.00  0.00    -0.016 A 
ATOM     24 C24  MOL A   1      13.907 -21.295  -7.671  1.00  0.00     0.161 A 
BRANCH  20  25
ATOM     25 C14  MOL A   1      15.873 -18.213  -8.848  1.00  0.00     0.028 C 
BRANCH  25  26
ATOM     26 N15  MOL A   1      16.730 -17.369  -7.990  1.00  0.00    -0.287 NA
ATOM     27 C16  MOL A   1      15.929 -16.550  -7.064  1.00  0.00     0.064 C 
ATOM     28 C17  MOL A   1      16.351 -15.255  -7.729  1.00  0.00     0.272 C 
ATOM     29 F18  MOL A   1      17.137 -14.448  -6.925  1.00  0.00    -0.204 F 
ATOM     30 F19  MOL A   1      15.312 -14.584  -8.353  1.00  0.00    -0.204 F 
ATOM     31 C20  MOL A   1      17.152 -16.133  -8.670  1.00  0.00     0.064 C 
ENDBRANCH  25  26
ENDBRANCH  20  25
BRANCH  24  32
ATOM     32 O25  MOL A   1      12.659 -21.884  -7.921  1.00  0.00    -0.493 OA
ATOM     33 C26  MOL A   1      12.337 -23.241  -7.639  1.00  0.00     0.078 C 
ENDBRANCH  24  32
ENDBRANCH  18  19
ENDBRANCH  17  18
ENDBRANCH  15  17
ENDBRANCH   8  14
ENDBRANCH   1   8
TORSDOF 10
ENDMDL
MODEL 174
REMARK VINA RESULT:    -7.443      6.605      9.452
REMARK INTER + INTRA:         -12.842
REMARK INTER:                 -12.004
REMARK INTRA:                  -0.838
REMARK UNBOUND:                -1.048
REMARK  10 active torsions:
REMARK  status: ('A' for Active; 'I' for Inactive)
REMARK   1   A    between atoms:  C27_1   and   C6_8  
REMARK   2   A    between atoms:  C6_8    and   C5_9  
REMARK   3   A    between atoms:  C5_9    and   C3_12 
REMARK   4   A    between atoms:  C6_8    and   N7_14 
REMARK   5   A    between atoms:  C8_15   and  C10_17 
REMARK   6   A    between atoms: C10_17   and  O11_18 
REMARK   7   A    between atoms: O11_18   and  C12_19 
REMARK   8   A    between atoms: C13_20   and  C14_25 
REMARK   9   A    between atoms: C14_25   and  N15_26 
REMARK   10  A    between atoms: C24_24   and  O25_32 
ROOT
ATOM      1 C27  MOL A   1       6.031 -20.945  -8.948  1.00  0.00    -0.024 A 
ATOM      2 C28  MOL A   1       5.965 -20.813  -7.549  1.00  0.00    -0.057 A 
ATOM      3 C29  MOL A   1       4.808 -21.186  -6.856  1.00  0.00    -0.061 A 
ATOM      4 C30  MOL A   1       3.708 -21.694  -7.552  1.00  0.00    -0.048 A 
ATOM      5 C31  MOL A   1       3.761 -21.835  -8.943  1.00  0.00     0.018 A 
ATOM      6 Br32 MOL A   1       2.263 -22.551  -9.892  1.00  0.00    -0.051 Br
ATOM      7 C33  MOL A   1       4.914 -21.457  -9.639  1.00  0.00    -0.043 A 
ENDROOT
BRANCH   1   8
ATOM      8  C6  MOL A   1       7.258 -20.471  -9.696  1.00  0.00     0.063 C 
BRANCH   8   9
ATOM      9  C5  MOL A   1       7.488 -21.348 -10.940  1.00  0.00     0.051 C 
BRANCH   9  12
ATOM     10  C1  MOL A   1       9.318 -24.493  -9.550  1.00  0.00     0.006 C 
ATOM     11  N2  MOL A   1       8.312 -23.471  -9.799  1.00  0.00    -0.359 N 
ATOM     12  C3  MOL A   1       8.550 -22.381 -10.697  1.00  0.00     0.222 C 
ATOM     13  O4  MOL A   1       9.657 -22.284 -11.294  1.00  0.00    -0.275 OA
ENDBRANCH   9  12
ENDBRANCH   8   9
BRANCH   8  14
ATOM     14  N7  MOL A   1       8.433 -20.503  -8.818  1.00  0.00    -0.346 N 
ATOM     15  C8  MOL A   1       9.355 -19.414  -8.728  1.00  0.00     0.258 C 
ATOM     16  O9  MOL A   1       9.185 -18.379  -9.424  1.00  0.00    -0.271 OA
BRANCH  15  17
ATOM     17 C10  MOL A   1      10.525 -19.488  -7.794  1.00  0.00     0.167 C 
BRANCH  17  18
ATOM     18 O11  MOL A   1      11.724 -19.759  -8.517  1.00  0.00    -0.480 OA
BRANCH  18  19
ATOM     19 C12  MOL A   1      12.919 -20.091  -7.873  1.00  0.00     0.166 A 
ATOM     20 C13  MOL A   1      13.920 -19.120  -7.644  1.00  0.00     0.012 A 
ATOM     21 C21  MOL A   1      15.071 -19.480  -6.923  1.00  0.00    -0.054 A 
ATOM     22 C22  MOL A   1      15.248 -20.790  -6.479  1.00  0.00    -0.058 A 
ATOM     23 C23  MOL A   1      14.282 -21.759  -6.750  1.00  0.00    -0.016 A 
ATOM     24 C24  MOL A   1      13.111 -21.418  -7.453  1.00  0.00     0.161 A 
BRANCH  20  25
ATOM     25 C14  MOL A   1      13.787 -17.703  -8.155  1.00  0.00     0.028 C 
BRANCH  25  26
ATOM     26 N15  MOL A   1      14.535 -16.769  -7.288  1.00  0.00    -0.287 NA
ATOM     27 C16  MOL A   1      13.885 -16.609  -5.977  1.00  0.00     0.064 C 
ATOM     28 C17  MOL A   1      13.552 -15.153  -6.238  1.00  0.00     0.272 C 
ATOM     29 F18  MOL A   1      14.233 -14.272  -5.416  1.00  0.00    -0.204 F 
ATOM     30 F19  MOL A   1      12.194 -14.900  -6.330  1.00  0.00    -0.204 F 
ATOM     31 C20  MOL A   1      14.218 -15.361  -7.584  1.00  0.00     0.064 C 
ENDBRANCH  25  26
ENDBRANCH  20  25
BRANCH  24  32
ATOM     32 O25  MOL A   1      12.116 -22.362  -7.747  1.00  0.00    -0.493 OA
ATOM     33 C26  MOL A   1      12.302 -23.772  -7.690  1.00  0.00     0.078 C 
ENDBRANCH  24  32
ENDBRANCH  18  19
ENDBRANCH  17  18
ENDBRANCH  15  17
ENDBRANCH   8  14
ENDBRANCH   1   8
TORSDOF 10
ENDMDL
MODEL 175
REMARK VINA RESULT:    -7.437      6.334     10.612
REMARK INTER + INTRA:         -12.833
REMARK INTER:                 -11.828
REMARK INTRA:                  -1.005
REMARK UNBOUND:                -1.048
REMARK  10 active torsions:
REMARK  status: ('A' for Active; 'I' for Inactive)
REMARK   1   A    between atoms:  C27_1   and   C6_8  
REMARK   2   A    between atoms:  C6_8    and   C5_9  
REMARK   3   A    between atoms:  C5_9    and   C3_12 
REMARK   4   A    between atoms:  C6_8    and   N7_14 
REMARK   5   A    between atoms:  C8_15   and  C10_17 
REMARK   6   A    between atoms: C10_17   and  O11_18 
REMARK   7   A    between atoms: O11_18   and  C12_19 
REMARK   8   A    between atoms: C13_20   and  C14_25 
REMARK   9   A    between atoms: C14_25   and  N15_26 
REMARK   10  A    between atoms: C24_24   and  O25_32 
ROOT
ATOM      1 C27  MOL A   1       9.262 -18.786  -9.367  1.00  0.00    -0.024 A 
ATOM      2 C28  MOL A   1       9.284 -17.812  -8.352  1.00  0.00    -0.057 A 
ATOM      3 C29  MOL A   1       8.577 -16.614  -8.506  1.00  0.00    -0.061 A 
ATOM      4 C30  MOL A   1       7.842 -16.378  -9.672  1.00  0.00    -0.048 A 
ATOM      5 C31  MOL A   1       7.809 -17.341 -10.687  1.00  0.00     0.018 A 
ATOM      6 Br32 MOL A   1       6.786 -17.027 -12.272  1.00  0.00    -0.051 Br
ATOM      7 C33  MOL A   1       8.520 -18.537 -10.539  1.00  0.00    -0.043 A 
ENDROOT
BRANCH   1   8
ATOM      8  C6  MOL A   1      10.088 -20.046  -9.224  1.00  0.00     0.063 C 
BRANCH   8   9
ATOM      9  C5  MOL A   1       9.164 -21.267  -9.062  1.00  0.00     0.051 C 
BRANCH   9  12
ATOM     10  C1  MOL A   1      10.900 -24.587 -10.127  1.00  0.00     0.006 C 
ATOM     11  N2  MOL A   1      10.445 -23.451  -9.340  1.00  0.00    -0.359 N 
ATOM     12  C3  MOL A   1       9.625 -22.422  -9.904  1.00  0.00     0.222 C 
ATOM     13  O4  MOL A   1       9.280 -22.481 -11.116  1.00  0.00    -0.275 OA
ENDBRANCH   9  12
ENDBRANCH   8   9
BRANCH   8  14
ATOM     14  N7  MOL A   1      10.997 -19.931  -8.078  1.00  0.00    -0.346 N 
ATOM     15  C8  MOL A   1      12.330 -19.431  -8.201  1.00  0.00     0.258 C 
ATOM     16  O9  MOL A   1      12.774 -19.076  -9.325  1.00  0.00    -0.271 OA
BRANCH  15  17
ATOM     17 C10  MOL A   1      13.208 -19.309  -6.992  1.00  0.00     0.167 C 
BRANCH  17  18
ATOM     18 O11  MOL A   1      14.292 -18.420  -7.250  1.00  0.00    -0.480 OA
BRANCH  18  19
ATOM     19 C12  MOL A   1      15.495 -18.492  -6.542  1.00  0.00     0.166 A 
ATOM     20 C13  MOL A   1      15.738 -17.656  -5.428  1.00  0.00     0.012 A 
ATOM     21 C21  MOL A   1      16.927 -17.816  -4.698  1.00  0.00    -0.054 A 
ATOM     22 C22  MOL A   1      17.880 -18.756  -5.093  1.00  0.00    -0.058 A 
ATOM     23 C23  MOL A   1      17.660 -19.545  -6.221  1.00  0.00    -0.016 A 
ATOM     24 C24  MOL A   1      16.467 -19.416  -6.958  1.00  0.00     0.161 A 
BRANCH  20  25
ATOM     25 C14  MOL A   1      14.753 -16.590  -5.002  1.00  0.00     0.028 C 
BRANCH  25  26
ATOM     26 N15  MOL A   1      15.118 -15.285  -5.591  1.00  0.00    -0.287 NA
ATOM     27 C16  MOL A   1      13.960 -14.637  -6.231  1.00  0.00     0.064 C 
ATOM     28 C17  MOL A   1      14.567 -14.755  -7.615  1.00  0.00     0.272 C 
ATOM     29 F18  MOL A   1      14.893 -13.536  -8.184  1.00  0.00    -0.204 F 
ATOM     30 F19  MOL A   1      13.867 -15.600  -8.461  1.00  0.00    -0.204 F 
ATOM     31 C20  MOL A   1      15.734 -15.429  -6.921  1.00  0.00     0.064 C 
ENDBRANCH  25  26
ENDBRANCH  20  25
BRANCH  24  32
ATOM     32 O25  MOL A   1      16.208 -20.190  -8.098  1.00  0.00    -0.493 OA
ATOM     33 C26  MOL A   1      16.393 -21.599  -8.175  1.00  0.00     0.078 C 
ENDBRANCH  24  32
ENDBRANCH  18  19
ENDBRANCH  17  18
ENDBRANCH  15  17
ENDBRANCH   8  14
ENDBRANCH   1   8
TORSDOF 10
ENDMDL
MODEL 176
REMARK VINA RESULT:    -7.434      4.742      9.663
REMARK INTER + INTRA:         -12.828
REMARK INTER:                 -11.722
REMARK INTRA:                  -1.106
REMARK UNBOUND:                -1.048
REMARK  10 active torsions:
REMARK  status: ('A' for Active; 'I' for Inactive)
REMARK   1   A    between atoms:  C27_1   and   C6_8  
REMARK   2   A    between atoms:  C6_8    and   C5_9  
REMARK   3   A    between atoms:  C5_9    and   C3_12 
REMARK   4   A    between atoms:  C6_8    and   N7_14 
REMARK   5   A    between atoms:  C8_15   and  C10_17 
REMARK   6   A    between atoms: C10_17   and  O11_18 
REMARK   7   A    between atoms: O11_18   and  C12_19 
REMARK   8   A    between atoms: C13_20   and  C14_25 
REMARK   9   A    between atoms: C14_25   and  N15_26 
REMARK   10  A    between atoms: C24_24   and  O25_32 
ROOT
ATOM      1 C27  MOL A   1       7.862 -19.807  -9.736  1.00  0.00    -0.024 A 
ATOM      2 C28  MOL A   1       8.213 -21.158  -9.913  1.00  0.00    -0.057 A 
ATOM      3 C29  MOL A   1       7.425 -22.173  -9.360  1.00  0.00    -0.061 A 
ATOM      4 C30  MOL A   1       6.281 -21.850  -8.625  1.00  0.00    -0.048 A 
ATOM      5 C31  MOL A   1       5.918 -20.511  -8.444  1.00  0.00     0.018 A 
ATOM      6 Br32 MOL A   1       4.339 -20.071  -7.457  1.00  0.00    -0.051 Br
ATOM      7 C33  MOL A   1       6.707 -19.493  -8.991  1.00  0.00    -0.043 A 
ENDROOT
BRANCH   1   8
ATOM      8  C6  MOL A   1       8.759 -18.714 -10.275  1.00  0.00     0.063 C 
BRANCH   8   9
ATOM      9  C5  MOL A   1       8.439 -18.454 -11.758  1.00  0.00     0.051 C 
BRANCH   9  12
ATOM     10  C1  MOL A   1       6.177 -15.391 -10.935  1.00  0.00     0.006 C 
ATOM     11  N2  MOL A   1       7.116 -16.497 -10.807  1.00  0.00    -0.359 N 
ATOM     12  C3  MOL A   1       7.460 -17.327 -11.921  1.00  0.00     0.222 C 
ATOM     13  O4  MOL A   1       6.943 -17.115 -13.051  1.00  0.00    -0.275 OA
ENDBRANCH   9  12
ENDBRANCH   8   9
BRANCH   8  14
ATOM     14  N7  MOL A   1      10.168 -19.085 -10.108  1.00  0.00    -0.346 N 
ATOM     15  C8  MOL A   1      11.059 -18.359  -9.257  1.00  0.00     0.258 C 
ATOM     16  O9  MOL A   1      10.650 -17.352  -8.621  1.00  0.00    -0.271 OA
BRANCH  15  17
ATOM     17 C10  MOL A   1      12.484 -18.797  -9.102  1.00  0.00     0.167 C 
BRANCH  17  18
ATOM     18 O11  MOL A   1      12.717 -19.279  -7.781  1.00  0.00    -0.480 OA
BRANCH  18  19
ATOM     19 C12  MOL A   1      13.963 -19.767  -7.379  1.00  0.00     0.166 A 
ATOM     20 C13  MOL A   1      15.083 -18.912  -7.272  1.00  0.00     0.012 A 
ATOM     21 C21  MOL A   1      16.297 -19.429  -6.788  1.00  0.00    -0.054 A 
ATOM     22 C22  MOL A   1      16.411 -20.780  -6.462  1.00  0.00    -0.058 A 
ATOM     23 C23  MOL A   1      15.318 -21.633  -6.617  1.00  0.00    -0.016 A 
ATOM     24 C24  MOL A   1      14.087 -21.134  -7.081  1.00  0.00     0.161 A 
BRANCH  20  25
ATOM     25 C14  MOL A   1      15.012 -17.453  -7.665  1.00  0.00     0.028 C 
BRANCH  25  26
ATOM     26 N15  MOL A   1      14.472 -16.644  -6.553  1.00  0.00    -0.287 NA
ATOM     27 C16  MOL A   1      13.361 -15.785  -6.997  1.00  0.00     0.064 C 
ATOM     28 C17  MOL A   1      14.147 -14.514  -6.746  1.00  0.00     0.272 C 
ATOM     29 F18  MOL A   1      13.637 -13.739  -5.719  1.00  0.00    -0.204 F 
ATOM     30 F19  MOL A   1      14.436 -13.800  -7.897  1.00  0.00    -0.204 F 
ATOM     31 C20  MOL A   1      15.272 -15.432  -6.309  1.00  0.00     0.064 C 
ENDBRANCH  25  26
ENDBRANCH  20  25
BRANCH  24  32
ATOM     32 O25  MOL A   1      12.965 -21.958  -7.251  1.00  0.00    -0.493 OA
ATOM     33 C26  MOL A   1      12.636 -23.056  -6.406  1.00  0.00     0.078 C 
ENDBRANCH  24  32
ENDBRANCH  18  19
ENDBRANCH  17  18
ENDBRANCH  15  17
ENDBRANCH   8  14
ENDBRANCH   1   8
TORSDOF 10
ENDMDL
MODEL 177
REMARK VINA RESULT:    -7.429      6.370      9.528
REMARK INTER + INTRA:         -12.821
REMARK INTER:                 -11.667
REMARK INTRA:                  -1.154
REMARK UNBOUND:                -1.048
REMARK  10 active torsions:
REMARK  status: ('A' for Active; 'I' for Inactive)
REMARK   1   A    between atoms:  C27_1   and   C6_8  
REMARK   2   A    between atoms:  C6_8    and   C5_9  
REMARK   3   A    between atoms:  C5_9    and   C3_12 
REMARK   4   A    between atoms:  C6_8    and   N7_14 
REMARK   5   A    between atoms:  C8_15   and  C10_17 
REMARK   6   A    between atoms: C10_17   and  O11_18 
REMARK   7   A    between atoms: O11_18   and  C12_19 
REMARK   8   A    between atoms: C13_20   and  C14_25 
REMARK   9   A    between atoms: C14_25   and  N15_26 
REMARK   10  A    between atoms: C24_24   and  O25_32 
ROOT
ATOM      1 C27  MOL A   1       2.520 -21.828  -8.729  1.00  0.00    -0.024 A 
ATOM      2 C28  MOL A   1       1.827 -20.969  -7.857  1.00  0.00    -0.057 A 
ATOM      3 C29  MOL A   1       0.448 -20.779  -8.000  1.00  0.00    -0.061 A 
ATOM      4 C30  MOL A   1      -0.251 -21.444  -9.011  1.00  0.00    -0.048 A 
ATOM      5 C31  MOL A   1       0.427 -22.304  -9.883  1.00  0.00     0.018 A 
ATOM      6 Br32 MOL A   1      -0.534 -23.230 -11.254  1.00  0.00    -0.051 Br
ATOM      7 C33  MOL A   1       1.806 -22.492  -9.747  1.00  0.00    -0.043 A 
ENDROOT
BRANCH   1   8
ATOM      8  C6  MOL A   1       4.023 -21.972  -8.614  1.00  0.00     0.063 C 
BRANCH   8   9
ATOM      9  C5  MOL A   1       4.504 -21.412  -7.263  1.00  0.00     0.051 C 
BRANCH   9  12
ATOM     10  C1  MOL A   1       5.611 -17.701  -7.678  1.00  0.00     0.006 C 
ATOM     11  N2  MOL A   1       4.794 -18.894  -7.511  1.00  0.00    -0.359 N 
ATOM     12  C3  MOL A   1       5.373 -20.202  -7.447  1.00  0.00     0.222 C 
ATOM     13  O4  MOL A   1       6.623 -20.346  -7.541  1.00  0.00    -0.275 OA
ENDBRANCH   9  12
ENDBRANCH   8   9
BRANCH   8  14
ATOM     14  N7  MOL A   1       4.685 -21.280  -9.725  1.00  0.00    -0.346 N 
ATOM     15  C8  MOL A   1       5.704 -21.896 -10.516  1.00  0.00     0.258 C 
ATOM     16  O9  MOL A   1       6.075 -23.074 -10.269  1.00  0.00    -0.271 OA
BRANCH  15  17
ATOM     17 C10  MOL A   1       6.330 -21.153 -11.658  1.00  0.00     0.167 C 
BRANCH  17  18
ATOM     18 O11  MOL A   1       7.752 -21.191 -11.557  1.00  0.00    -0.480 OA
BRANCH  18  19
ATOM     19 C12  MOL A   1       8.454 -20.379 -10.663  1.00  0.00     0.166 A 
ATOM     20 C13  MOL A   1       9.172 -20.936  -9.579  1.00  0.00     0.012 A 
ATOM     21 C21  MOL A   1       9.928 -20.090  -8.751  1.00  0.00    -0.054 A 
ATOM     22 C22  MOL A   1       9.934 -18.711  -8.964  1.00  0.00    -0.058 A 
ATOM     23 C23  MOL A   1       9.185 -18.159 -10.003  1.00  0.00    -0.016 A 
ATOM     24 C24  MOL A   1       8.435 -18.989 -10.858  1.00  0.00     0.161 A 
BRANCH  20  25
ATOM     25 C14  MOL A   1       9.147 -22.420  -9.285  1.00  0.00     0.028 C 
BRANCH  25  26
ATOM     26 N15  MOL A   1      10.371 -23.068  -9.797  1.00  0.00    -0.287 NA
ATOM     27 C16  MOL A   1      10.127 -24.472 -10.168  1.00  0.00     0.064 C 
ATOM     28 C17  MOL A   1      11.031 -24.996  -9.069  1.00  0.00     0.272 C 
ATOM     29 F18  MOL A   1      12.171 -25.623  -9.540  1.00  0.00    -0.204 F 
ATOM     30 F19  MOL A   1      10.361 -25.710  -8.089  1.00  0.00    -0.204 F 
ATOM     31 C20  MOL A   1      11.247 -23.538  -8.710  1.00  0.00     0.064 C 
ENDBRANCH  25  26
ENDBRANCH  20  25
BRANCH  24  32
ATOM     32 O25  MOL A   1       7.668 -18.473 -11.913  1.00  0.00    -0.493 OA
ATOM     33 C26  MOL A   1       7.042 -17.195 -11.904  1.00  0.00     0.078 C 
ENDBRANCH  24  32
ENDBRANCH  18  19
ENDBRANCH  17  18
ENDBRANCH  15  17
ENDBRANCH   8  14
ENDBRANCH   1   8
TORSDOF 10
ENDMDL
MODEL 178
REMARK VINA RESULT:    -7.429      6.461     11.020
REMARK INTER + INTRA:         -12.820
REMARK INTER:                 -11.563
REMARK INTRA:                  -1.257
REMARK UNBOUND:                -1.048
REMARK  10 active torsions:
REMARK  status: ('A' for Active; 'I' for Inactive)
REMARK   1   A    between atoms:  C27_1   and   C6_8  
REMARK   2   A    between atoms:  C6_8    and   C5_9  
REMARK   3   A    between atoms:  C5_9    and   C3_12 
REMARK   4   A    between atoms:  C6_8    and   N7_14 
REMARK   5   A    between atoms:  C8_15   and  C10_17 
REMARK   6   A    between atoms: C10_17   and  O11_18 
REMARK   7   A    between atoms: O11_18   and  C12_19 
REMARK   8   A    between atoms: C13_20   and  C14_25 
REMARK   9   A    between atoms: C14_25   and  N15_26 
REMARK   10  A    between atoms: C24_24   and  O25_32 
ROOT
ATOM      1 C27  MOL A   1       8.260 -18.335  -9.448  1.00  0.00    -0.024 A 
ATOM      2 C28  MOL A   1       8.186 -17.623 -10.659  1.00  0.00    -0.057 A 
ATOM      3 C29  MOL A   1       7.231 -16.615 -10.830  1.00  0.00    -0.061 A 
ATOM      4 C30  MOL A   1       6.342 -16.307  -9.796  1.00  0.00    -0.048 A 
ATOM      5 C31  MOL A   1       6.408 -17.005  -8.585  1.00  0.00     0.018 A 
ATOM      6 Br32 MOL A   1       5.205 -16.569  -7.162  1.00  0.00    -0.051 Br
ATOM      7 C33  MOL A   1       7.357 -18.018  -8.412  1.00  0.00    -0.043 A 
ENDROOT
BRANCH   1   8
ATOM      8  C6  MOL A   1       9.246 -19.472  -9.297  1.00  0.00     0.063 C 
BRANCH   8   9
ATOM      9  C5  MOL A   1       8.536 -20.715  -8.732  1.00  0.00     0.051 C 
BRANCH   9  12
ATOM     10  C1  MOL A   1      10.229 -23.928 -10.139  1.00  0.00     0.006 C 
ATOM     11  N2  MOL A   1       9.955 -22.739  -9.345  1.00  0.00    -0.359 N 
ATOM     12  C3  MOL A   1       8.796 -21.930  -9.575  1.00  0.00     0.222 C 
ATOM     13  O4  MOL A   1       7.983 -22.235 -10.489  1.00  0.00    -0.275 OA
ENDBRANCH   9  12
ENDBRANCH   8   9
BRANCH   8  14
ATOM     14  N7  MOL A   1      10.356 -19.071  -8.426  1.00  0.00    -0.346 N 
ATOM     15  C8  MOL A   1      11.616 -18.633  -8.938  1.00  0.00     0.258 C 
ATOM     16  O9  MOL A   1      11.817 -18.590 -10.181  1.00  0.00    -0.271 OA
BRANCH  15  17
ATOM     17 C10  MOL A   1      12.709 -18.209  -8.002  1.00  0.00     0.167 C 
BRANCH  17  18
ATOM     18 O11  MOL A   1      13.570 -17.267  -8.636  1.00  0.00    -0.480 OA
BRANCH  18  19
ATOM     19 C12  MOL A   1      14.793 -16.886  -8.077  1.00  0.00     0.166 A 
ATOM     20 C13  MOL A   1      15.978 -17.607  -8.350  1.00  0.00     0.012 A 
ATOM     21 C21  MOL A   1      17.198 -17.143  -7.829  1.00  0.00    -0.054 A 
ATOM     22 C22  MOL A   1      17.235 -16.012  -7.013  1.00  0.00    -0.058 A 
ATOM     23 C23  MOL A   1      16.057 -15.332  -6.704  1.00  0.00    -0.016 A 
ATOM     24 C24  MOL A   1      14.826 -15.766  -7.230  1.00  0.00     0.161 A 
BRANCH  20  25
ATOM     25 C14  MOL A   1      15.969 -18.867  -9.186  1.00  0.00     0.028 C 
BRANCH  25  26
ATOM     26 N15  MOL A   1      16.943 -19.844  -8.658  1.00  0.00    -0.287 NA
ATOM     27 C16  MOL A   1      17.207 -20.923  -9.625  1.00  0.00     0.064 C 
ATOM     28 C17  MOL A   1      16.575 -21.975  -8.734  1.00  0.00     0.272 C 
ATOM     29 F18  MOL A   1      17.477 -22.908  -8.251  1.00  0.00    -0.204 F 
ATOM     30 F19  MOL A   1      15.421 -22.531  -9.261  1.00  0.00    -0.204 F 
ATOM     31 C20  MOL A   1      16.309 -20.835  -7.771  1.00  0.00     0.064 C 
ENDBRANCH  25  26
ENDBRANCH  20  25
BRANCH  24  32
ATOM     32 O25  MOL A   1      13.620 -15.111  -6.942  1.00  0.00    -0.493 OA
ATOM     33 C26  MOL A   1      13.380 -14.344  -5.767  1.00  0.00     0.078 C 
ENDBRANCH  24  32
ENDBRANCH  18  19
ENDBRANCH  17  18
ENDBRANCH  15  17
ENDBRANCH   8  14
ENDBRANCH   1   8
TORSDOF 10
ENDMDL
MODEL 179
REMARK VINA RESULT:    -7.428      3.077      5.123
REMARK INTER + INTRA:         -12.819
REMARK INTER:                 -12.643
REMARK INTRA:                  -0.177
REMARK UNBOUND:                -1.048
REMARK  10 active torsions:
REMARK  status: ('A' for Active; 'I' for Inactive)
REMARK   1   A    between atoms:  C27_1   and   C6_8  
REMARK   2   A    between atoms:  C6_8    and   C5_9  
REMARK   3   A    between atoms:  C5_9    and   C3_12 
REMARK   4   A    between atoms:  C6_8    and   N7_14 
REMARK   5   A    between atoms:  C8_15   and  C10_17 
REMARK   6   A    between atoms: C10_17   and  O11_18 
REMARK   7   A    between atoms: O11_18   and  C12_19 
REMARK   8   A    between atoms: C13_20   and  C14_25 
REMARK   9   A    between atoms: C14_25   and  N15_26 
REMARK   10  A    between atoms: C24_24   and  O25_32 
ROOT
ATOM      1 C27  MOL A   1       8.475 -17.709  -8.688  1.00  0.00    -0.024 A 
ATOM      2 C28  MOL A   1       8.891 -16.433  -8.265  1.00  0.00    -0.057 A 
ATOM      3 C29  MOL A   1      10.066 -16.282  -7.522  1.00  0.00    -0.061 A 
ATOM      4 C30  MOL A   1      10.837 -17.400  -7.194  1.00  0.00    -0.048 A 
ATOM      5 C31  MOL A   1      10.437 -18.675  -7.610  1.00  0.00     0.018 A 
ATOM      6 Br32 MOL A   1      11.505 -20.202  -7.179  1.00  0.00    -0.051 Br
ATOM      7 C33  MOL A   1       9.260 -18.830  -8.349  1.00  0.00    -0.043 A 
ENDROOT
BRANCH   1   8
ATOM      8  C6  MOL A   1       7.166 -17.873  -9.429  1.00  0.00     0.063 C 
BRANCH   8   9
ATOM      9  C5  MOL A   1       7.398 -18.625 -10.751  1.00  0.00     0.051 C 
BRANCH   9  12
ATOM     10  C1  MOL A   1       5.527 -21.796  -9.479  1.00  0.00     0.006 C 
ATOM     11  N2  MOL A   1       6.145 -20.479  -9.535  1.00  0.00    -0.359 N 
ATOM     12  C3  MOL A   1       6.779 -19.992 -10.723  1.00  0.00     0.222 C 
ATOM     13  O4  MOL A   1       6.818 -20.711 -11.758  1.00  0.00    -0.275 OA
ENDBRANCH   9  12
ENDBRANCH   8   9
BRANCH   8  14
ATOM     14  N7  MOL A   1       6.557 -16.562  -9.680  1.00  0.00    -0.346 N 
ATOM     15  C8  MOL A   1       6.384 -16.035 -10.997  1.00  0.00     0.258 C 
ATOM     16  O9  MOL A   1       6.767 -16.693 -12.001  1.00  0.00    -0.271 OA
BRANCH  15  17
ATOM     17 C10  MOL A   1       5.731 -14.700 -11.200  1.00  0.00     0.167 C 
BRANCH  17  18
ATOM     18 O11  MOL A   1       4.406 -14.863 -11.700  1.00  0.00    -0.480 OA
BRANCH  18  19
ATOM     19 C12  MOL A   1       3.526 -13.786 -11.833  1.00  0.00     0.166 A 
ATOM     20 C13  MOL A   1       2.366 -13.687 -11.033  1.00  0.00     0.012 A 
ATOM     21 C21  MOL A   1       1.551 -12.547 -11.144  1.00  0.00    -0.054 A 
ATOM     22 C22  MOL A   1       1.856 -11.547 -12.067  1.00  0.00    -0.058 A 
ATOM     23 C23  MOL A   1       2.974 -11.671 -12.892  1.00  0.00    -0.016 A 
ATOM     24 C24  MOL A   1       3.816 -12.793 -12.784  1.00  0.00     0.161 A 
BRANCH  20  25
ATOM     25 C14  MOL A   1       1.974 -14.776 -10.059  1.00  0.00     0.028 C 
BRANCH  25  26
ATOM     26 N15  MOL A   1       2.194 -14.328  -8.668  1.00  0.00    -0.287 NA
ATOM     27 C16  MOL A   1       3.527 -14.715  -8.178  1.00  0.00     0.064 C 
ATOM     28 C17  MOL A   1       2.953 -15.665  -7.146  1.00  0.00     0.272 C 
ATOM     29 F18  MOL A   1       3.172 -15.264  -5.839  1.00  0.00    -0.204 F 
ATOM     30 F19  MOL A   1       3.257 -16.995  -7.383  1.00  0.00    -0.204 F 
ATOM     31 C20  MOL A   1       1.599 -15.251  -7.686  1.00  0.00     0.064 C 
ENDBRANCH  25  26
ENDBRANCH  20  25
BRANCH  24  32
ATOM     32 O25  MOL A   1       4.949 -12.956 -13.595  1.00  0.00    -0.493 OA
ATOM     33 C26  MOL A   1       4.970 -13.698 -14.810  1.00  0.00     0.078 C 
ENDBRANCH  24  32
ENDBRANCH  18  19
ENDBRANCH  17  18
ENDBRANCH  15  17
ENDBRANCH   8  14
ENDBRANCH   1   8
TORSDOF 10
ENDMDL
MODEL 180
REMARK VINA RESULT:    -7.427      4.865     10.054
REMARK INTER + INTRA:         -12.818
REMARK INTER:                 -11.728
REMARK INTRA:                  -1.090
REMARK UNBOUND:                -1.048
REMARK  10 active torsions:
REMARK  status: ('A' for Active; 'I' for Inactive)
REMARK   1   A    between atoms:  C27_1   and   C6_8  
REMARK   2   A    between atoms:  C6_8    and   C5_9  
REMARK   3   A    between atoms:  C5_9    and   C3_12 
REMARK   4   A    between atoms:  C6_8    and   N7_14 
REMARK   5   A    between atoms:  C8_15   and  C10_17 
REMARK   6   A    between atoms: C10_17   and  O11_18 
REMARK   7   A    between atoms: O11_18   and  C12_19 
REMARK   8   A    between atoms: C13_20   and  C14_25 
REMARK   9   A    between atoms: C14_25   and  N15_26 
REMARK   10  A    between atoms: C24_24   and  O25_32 
ROOT
ATOM      1 C27  MOL A   1       7.277 -19.031  -9.836  1.00  0.00    -0.024 A 
ATOM      2 C28  MOL A   1       6.665 -18.663  -8.625  1.00  0.00    -0.057 A 
ATOM      3 C29  MOL A   1       5.716 -19.501  -8.029  1.00  0.00    -0.061 A 
ATOM      4 C30  MOL A   1       5.369 -20.711  -8.635  1.00  0.00    -0.048 A 
ATOM      5 C31  MOL A   1       5.973 -21.091  -9.839  1.00  0.00     0.018 A 
ATOM      6 Br32 MOL A   1       5.515 -22.758 -10.657  1.00  0.00    -0.051 Br
ATOM      7 C33  MOL A   1       6.919 -20.253 -10.440  1.00  0.00    -0.043 A 
ENDROOT
BRANCH   1   8
ATOM      8  C6  MOL A   1       8.248 -18.087 -10.511  1.00  0.00     0.063 C 
BRANCH   8   9
ATOM      9  C5  MOL A   1       7.896 -17.946 -12.003  1.00  0.00     0.051 C 
BRANCH   9  12
ATOM     10  C1  MOL A   1       5.595 -14.871 -11.352  1.00  0.00     0.006 C 
ATOM     11  N2  MOL A   1       6.524 -15.974 -11.156  1.00  0.00    -0.359 N 
ATOM     12  C3  MOL A   1       6.927 -16.823 -12.236  1.00  0.00     0.222 C 
ATOM     13  O4  MOL A   1       6.471 -16.629 -13.396  1.00  0.00    -0.275 OA
ENDBRANCH   9  12
ENDBRANCH   8   9
BRANCH   8  14
ATOM     14  N7  MOL A   1       9.624 -18.570 -10.349  1.00  0.00    -0.346 N 
ATOM     15  C8  MOL A   1      10.492 -18.088  -9.322  1.00  0.00     0.258 C 
ATOM     16  O9  MOL A   1      10.094 -17.206  -8.516  1.00  0.00    -0.271 OA
BRANCH  15  17
ATOM     17 C10  MOL A   1      11.881 -18.636  -9.185  1.00  0.00     0.167 C 
BRANCH  17  18
ATOM     18 O11  MOL A   1      12.162 -18.947  -7.822  1.00  0.00    -0.480 OA
BRANCH  18  19
ATOM     19 C12  MOL A   1      13.307 -19.654  -7.444  1.00  0.00     0.166 A 
ATOM     20 C13  MOL A   1      14.507 -18.982  -7.117  1.00  0.00     0.012 A 
ATOM     21 C21  MOL A   1      15.609 -19.727  -6.666  1.00  0.00    -0.054 A 
ATOM     22 C22  MOL A   1      15.538 -21.118  -6.586  1.00  0.00    -0.058 A 
ATOM     23 C23  MOL A   1      14.369 -21.783  -6.957  1.00  0.00    -0.016 A 
ATOM     24 C24  MOL A   1      13.246 -21.056  -7.393  1.00  0.00     0.161 A 
BRANCH  20  25
ATOM     25 C14  MOL A   1      14.638 -17.480  -7.241  1.00  0.00     0.028 C 
BRANCH  25  26
ATOM     26 N15  MOL A   1      15.851 -17.009  -6.541  1.00  0.00    -0.287 NA
ATOM     27 C16  MOL A   1      15.690 -15.630  -6.049  1.00  0.00     0.064 C 
ATOM     28 C17  MOL A   1      16.753 -15.093  -6.988  1.00  0.00     0.272 C 
ATOM     29 F18  MOL A   1      17.884 -14.630  -6.340  1.00  0.00    -0.204 F 
ATOM     30 F19  MOL A   1      16.260 -14.224  -7.948  1.00  0.00    -0.204 F 
ATOM     31 C20  MOL A   1      16.879 -16.522  -7.477  1.00  0.00     0.064 C 
ENDBRANCH  25  26
ENDBRANCH  20  25
BRANCH  24  32
ATOM     32 O25  MOL A   1      12.053 -21.686  -7.776  1.00  0.00    -0.493 OA
ATOM     33 C26  MOL A   1      11.941 -23.066  -8.108  1.00  0.00     0.078 C 
ENDBRANCH  24  32
ENDBRANCH  18  19
ENDBRANCH  17  18
ENDBRANCH  15  17
ENDBRANCH   8  14
ENDBRANCH   1   8
TORSDOF 10
ENDMDL
MODEL 181
REMARK VINA RESULT:    -7.426      5.524     10.357
REMARK INTER + INTRA:         -12.816
REMARK INTER:                 -11.472
REMARK INTRA:                  -1.344
REMARK UNBOUND:                -1.048
REMARK  10 active torsions:
REMARK  status: ('A' for Active; 'I' for Inactive)
REMARK   1   A    between atoms:  C27_1   and   C6_8  
REMARK   2   A    between atoms:  C6_8    and   C5_9  
REMARK   3   A    between atoms:  C5_9    and   C3_12 
REMARK   4   A    between atoms:  C6_8    and   N7_14 
REMARK   5   A    between atoms:  C8_15   and  C10_17 
REMARK   6   A    between atoms: C10_17   and  O11_18 
REMARK   7   A    between atoms: O11_18   and  C12_19 
REMARK   8   A    between atoms: C13_20   and  C14_25 
REMARK   9   A    between atoms: C14_25   and  N15_26 
REMARK   10  A    between atoms: C24_24   and  O25_32 
ROOT
ATOM      1 C27  MOL A   1       7.754 -19.563  -9.763  1.00  0.00    -0.024 A 
ATOM      2 C28  MOL A   1       8.364 -20.825  -9.887  1.00  0.00    -0.057 A 
ATOM      3 C29  MOL A   1       7.782 -21.953  -9.301  1.00  0.00    -0.061 A 
ATOM      4 C30  MOL A   1       6.587 -21.835  -8.586  1.00  0.00    -0.048 A 
ATOM      5 C31  MOL A   1       5.967 -20.586  -8.458  1.00  0.00     0.018 A 
ATOM      6 Br32 MOL A   1       4.320 -20.429  -7.498  1.00  0.00    -0.051 Br
ATOM      7 C33  MOL A   1       6.550 -19.455  -9.038  1.00  0.00    -0.043 A 
ENDROOT
BRANCH   1   8
ATOM      8  C6  MOL A   1       8.427 -18.336 -10.338  1.00  0.00     0.063 C 
BRANCH   8   9
ATOM      9  C5  MOL A   1       8.048 -18.172 -11.821  1.00  0.00     0.051 C 
BRANCH   9  12
ATOM     10  C1  MOL A   1       5.677 -15.175 -11.062  1.00  0.00     0.006 C 
ATOM     11  N2  MOL A   1       6.621 -16.273 -10.903  1.00  0.00    -0.359 N 
ATOM     12  C3  MOL A   1       7.066 -17.053 -12.017  1.00  0.00     0.222 C 
ATOM     13  O4  MOL A   1       6.637 -16.803 -13.176  1.00  0.00    -0.275 OA
ENDBRANCH   9  12
ENDBRANCH   8   9
BRANCH   8  14
ATOM     14  N7  MOL A   1       9.883 -18.437 -10.186  1.00  0.00    -0.346 N 
ATOM     15  C8  MOL A   1      10.583 -17.859  -9.082  1.00  0.00     0.258 C 
ATOM     16  O9  MOL A   1       9.954 -17.223  -8.195  1.00  0.00    -0.271 OA
BRANCH  15  17
ATOM     17 C10  MOL A   1      12.069 -18.014  -8.961  1.00  0.00     0.167 C 
BRANCH  17  18
ATOM     18 O11  MOL A   1      12.465 -17.978  -7.592  1.00  0.00    -0.480 OA
BRANCH  18  19
ATOM     19 C12  MOL A   1      13.807 -17.900  -7.210  1.00  0.00     0.166 A 
ATOM     20 C13  MOL A   1      14.661 -19.023  -7.308  1.00  0.00     0.012 A 
ATOM     21 C21  MOL A   1      16.021 -18.878  -6.988  1.00  0.00    -0.054 A 
ATOM     22 C22  MOL A   1      16.516 -17.656  -6.532  1.00  0.00    -0.058 A 
ATOM     23 C23  MOL A   1      15.660 -16.564  -6.388  1.00  0.00    -0.016 A 
ATOM     24 C24  MOL A   1      14.298 -16.679  -6.722  1.00  0.00     0.161 A 
BRANCH  20  25
ATOM     25 C14  MOL A   1      14.150 -20.377  -7.748  1.00  0.00     0.028 C 
BRANCH  25  26
ATOM     26 N15  MOL A   1      13.594 -21.117  -6.597  1.00  0.00    -0.287 NA
ATOM     27 C16  MOL A   1      14.220 -22.442  -6.450  1.00  0.00     0.064 C 
ATOM     28 C17  MOL A   1      12.929 -23.168  -6.773  1.00  0.00     0.272 C 
ATOM     29 F18  MOL A   1      12.410 -23.881  -5.707  1.00  0.00    -0.204 F 
ATOM     30 F19  MOL A   1      12.973 -23.884  -7.959  1.00  0.00    -0.204 F 
ATOM     31 C20  MOL A   1      12.324 -21.786  -6.928  1.00  0.00     0.064 C 
ENDBRANCH  25  26
ENDBRANCH  20  25
BRANCH  24  32
ATOM     32 O25  MOL A   1      13.405 -15.605  -6.590  1.00  0.00    -0.493 OA
ATOM     33 C26  MOL A   1      13.251 -14.826  -5.409  1.00  0.00     0.078 C 
ENDBRANCH  24  32
ENDBRANCH  18  19
ENDBRANCH  17  18
ENDBRANCH  15  17
ENDBRANCH   8  14
ENDBRANCH   1   8
TORSDOF 10
ENDMDL
MODEL 182
REMARK VINA RESULT:    -7.422      4.973     10.015
REMARK INTER + INTRA:         -12.809
REMARK INTER:                 -11.726
REMARK INTRA:                  -1.083
REMARK UNBOUND:                -1.048
REMARK  10 active torsions:
REMARK  status: ('A' for Active; 'I' for Inactive)
REMARK   1   A    between atoms:  C27_1   and   C6_8  
REMARK   2   A    between atoms:  C6_8    and   C5_9  
REMARK   3   A    between atoms:  C5_9    and   C3_12 
REMARK   4   A    between atoms:  C6_8    and   N7_14 
REMARK   5   A    between atoms:  C8_15   and  C10_17 
REMARK   6   A    between atoms: C10_17   and  O11_18 
REMARK   7   A    between atoms: O11_18   and  C12_19 
REMARK   8   A    between atoms: C13_20   and  C14_25 
REMARK   9   A    between atoms: C14_25   and  N15_26 
REMARK   10  A    between atoms: C24_24   and  O25_32 
ROOT
ATOM      1 C27  MOL A   1       7.482 -20.048  -9.760  1.00  0.00    -0.024 A 
ATOM      2 C28  MOL A   1       8.208 -20.942 -10.568  1.00  0.00    -0.057 A 
ATOM      3 C29  MOL A   1       7.607 -22.112 -11.046  1.00  0.00    -0.061 A 
ATOM      4 C30  MOL A   1       6.278 -22.400 -10.722  1.00  0.00    -0.048 A 
ATOM      5 C31  MOL A   1       5.544 -21.517  -9.922  1.00  0.00     0.018 A 
ATOM      6 Br32 MOL A   1       3.719 -21.902  -9.497  1.00  0.00    -0.051 Br
ATOM      7 C33  MOL A   1       6.143 -20.350  -9.438  1.00  0.00    -0.043 A 
ENDROOT
BRANCH   1   8
ATOM      8  C6  MOL A   1       8.161 -18.822  -9.188  1.00  0.00     0.063 C 
BRANCH   8   9
ATOM      9  C5  MOL A   1       7.760 -17.573  -9.993  1.00  0.00     0.051 C 
BRANCH   9  12
ATOM     10  C1  MOL A   1       5.305 -16.315  -7.242  1.00  0.00     0.006 C 
ATOM     11  N2  MOL A   1       6.357 -17.047  -7.933  1.00  0.00    -0.359 N 
ATOM     12  C3  MOL A   1       6.662 -16.809  -9.312  1.00  0.00     0.222 C 
ATOM     13  O4  MOL A   1       6.009 -15.949  -9.964  1.00  0.00    -0.275 OA
ENDBRANCH   9  12
ENDBRANCH   8   9
BRANCH   8  14
ATOM     14  N7  MOL A   1       9.618 -18.997  -9.199  1.00  0.00    -0.346 N 
ATOM     15  C8  MOL A   1      10.331 -19.570  -8.101  1.00  0.00     0.258 C 
ATOM     16  O9  MOL A   1       9.715 -19.940  -7.067  1.00  0.00    -0.271 OA
BRANCH  15  17
ATOM     17 C10  MOL A   1      11.818 -19.750  -8.174  1.00  0.00     0.167 C 
BRANCH  17  18
ATOM     18 O11  MOL A   1      12.371 -19.870  -6.866  1.00  0.00    -0.480 OA
BRANCH  18  19
ATOM     19 C12  MOL A   1      13.713 -20.198  -6.656  1.00  0.00     0.166 A 
ATOM     20 C13  MOL A   1      14.693 -19.194  -6.481  1.00  0.00     0.012 A 
ATOM     21 C21  MOL A   1      16.016 -19.569  -6.194  1.00  0.00    -0.054 A 
ATOM     22 C22  MOL A   1      16.371 -20.916  -6.128  1.00  0.00    -0.058 A 
ATOM     23 C23  MOL A   1      15.413 -21.906  -6.350  1.00  0.00    -0.016 A 
ATOM     24 C24  MOL A   1      14.077 -21.554  -6.620  1.00  0.00     0.161 A 
BRANCH  20  25
ATOM     25 C14  MOL A   1      14.356 -17.723  -6.598  1.00  0.00     0.028 C 
BRANCH  25  26
ATOM     26 N15  MOL A   1      15.570 -16.938  -6.900  1.00  0.00    -0.287 NA
ATOM     27 C16  MOL A   1      15.511 -15.596  -6.297  1.00  0.00     0.064 C 
ATOM     28 C17  MOL A   1      15.460 -14.911  -7.648  1.00  0.00     0.272 C 
ATOM     29 F18  MOL A   1      16.584 -14.156  -7.932  1.00  0.00    -0.204 F 
ATOM     30 F19  MOL A   1      14.265 -14.254  -7.896  1.00  0.00    -0.204 F 
ATOM     31 C20  MOL A   1      15.509 -16.310  -8.231  1.00  0.00     0.064 C 
ENDBRANCH  25  26
ENDBRANCH  20  25
BRANCH  24  32
ATOM     32 O25  MOL A   1      13.085 -22.518  -6.850  1.00  0.00    -0.493 OA
ATOM     33 C26  MOL A   1      13.336 -23.834  -7.330  1.00  0.00     0.078 C 
ENDBRANCH  24  32
ENDBRANCH  18  19
ENDBRANCH  17  18
ENDBRANCH  15  17
ENDBRANCH   8  14
ENDBRANCH   1   8
TORSDOF 10
ENDMDL
MODEL 183
REMARK VINA RESULT:    -7.416      6.040     10.576
REMARK INTER + INTRA:         -12.800
REMARK INTER:                 -11.693
REMARK INTRA:                  -1.107
REMARK UNBOUND:                -1.048
REMARK  10 active torsions:
REMARK  status: ('A' for Active; 'I' for Inactive)
REMARK   1   A    between atoms:  C27_1   and   C6_8  
REMARK   2   A    between atoms:  C6_8    and   C5_9  
REMARK   3   A    between atoms:  C5_9    and   C3_12 
REMARK   4   A    between atoms:  C6_8    and   N7_14 
REMARK   5   A    between atoms:  C8_15   and  C10_17 
REMARK   6   A    between atoms: C10_17   and  O11_18 
REMARK   7   A    between atoms: O11_18   and  C12_19 
REMARK   8   A    between atoms: C13_20   and  C14_25 
REMARK   9   A    between atoms: C14_25   and  N15_26 
REMARK   10  A    between atoms: C24_24   and  O25_32 
ROOT
ATOM      1 C27  MOL A   1       8.202 -20.077 -10.078  1.00  0.00    -0.024 A 
ATOM      2 C28  MOL A   1       7.050 -20.233 -10.871  1.00  0.00    -0.057 A 
ATOM      3 C29  MOL A   1       6.640 -21.506 -11.282  1.00  0.00    -0.061 A 
ATOM      4 C30  MOL A   1       7.374 -22.634 -10.906  1.00  0.00    -0.048 A 
ATOM      5 C31  MOL A   1       8.520 -22.494 -10.114  1.00  0.00     0.018 A 
ATOM      6 Br32 MOL A   1       9.511 -24.041  -9.582  1.00  0.00    -0.051 Br
ATOM      7 C33  MOL A   1       8.936 -21.222  -9.706  1.00  0.00    -0.043 A 
ENDROOT
BRANCH   1   8
ATOM      8  C6  MOL A   1       8.679 -18.692  -9.699  1.00  0.00     0.063 C 
BRANCH   8   9
ATOM      9  C5  MOL A   1       7.904 -17.630 -10.500  1.00  0.00     0.051 C 
BRANCH   9  12
ATOM     10  C1  MOL A   1       5.703 -16.664  -7.435  1.00  0.00     0.006 C 
ATOM     11  N2  MOL A   1       6.660 -17.344  -8.296  1.00  0.00    -0.359 N 
ATOM     12  C3  MOL A   1       6.903 -16.914  -9.640  1.00  0.00     0.222 C 
ATOM     13  O4  MOL A   1       6.277 -15.925 -10.111  1.00  0.00    -0.275 OA
ENDBRANCH   9  12
ENDBRANCH   8   9
BRANCH   8  14
ATOM     14  N7  MOL A   1      10.121 -18.568  -9.938  1.00  0.00    -0.346 N 
ATOM     15  C8  MOL A   1      10.996 -17.894  -9.032  1.00  0.00     0.258 C 
ATOM     16  O9  MOL A   1      10.539 -17.366  -7.983  1.00  0.00    -0.271 OA
BRANCH  15  17
ATOM     17 C10  MOL A   1      12.467 -17.819  -9.311  1.00  0.00     0.167 C 
BRANCH  17  18
ATOM     18 O11  MOL A   1      13.187 -17.516  -8.119  1.00  0.00    -0.480 OA
BRANCH  18  19
ATOM     19 C12  MOL A   1      14.448 -16.914  -8.147  1.00  0.00     0.166 A 
ATOM     20 C13  MOL A   1      15.585 -17.620  -8.603  1.00  0.00     0.012 A 
ATOM     21 C21  MOL A   1      16.817 -16.952  -8.689  1.00  0.00    -0.054 A 
ATOM     22 C22  MOL A   1      16.931 -15.622  -8.284  1.00  0.00    -0.058 A 
ATOM     23 C23  MOL A   1      15.819 -14.942  -7.787  1.00  0.00    -0.016 A 
ATOM     24 C24  MOL A   1      14.569 -15.585  -7.710  1.00  0.00     0.161 A 
BRANCH  20  25
ATOM     25 C14  MOL A   1      15.511 -19.078  -9.001  1.00  0.00     0.028 C 
BRANCH  25  26
ATOM     26 N15  MOL A   1      15.701 -19.944  -7.820  1.00  0.00    -0.287 NA
ATOM     27 C16  MOL A   1      16.546 -21.109  -8.133  1.00  0.00     0.064 C 
ATOM     28 C17  MOL A   1      15.406 -22.086  -7.918  1.00  0.00     0.272 C 
ATOM     29 F18  MOL A   1      15.585 -22.916  -6.825  1.00  0.00    -0.204 F 
ATOM     30 F19  MOL A   1      15.016 -22.749  -9.070  1.00  0.00    -0.204 F 
ATOM     31 C20  MOL A   1      14.566 -20.861  -7.614  1.00  0.00     0.064 C 
ENDBRANCH  25  26
ENDBRANCH  20  25
BRANCH  24  32
ATOM     32 O25  MOL A   1      13.428 -14.938  -7.216  1.00  0.00    -0.493 OA
ATOM     33 C26  MOL A   1      12.742 -15.312  -6.026  1.00  0.00     0.078 C 
ENDBRANCH  24  32
ENDBRANCH  18  19
ENDBRANCH  17  18
ENDBRANCH  15  17
ENDBRANCH   8  14
ENDBRANCH   1   8
TORSDOF 10
ENDMDL
MODEL 184
REMARK VINA RESULT:    -7.411      4.060      7.945
REMARK INTER + INTRA:         -12.792
REMARK INTER:                 -11.713
REMARK INTRA:                  -1.078
REMARK UNBOUND:                -1.048
REMARK  10 active torsions:
REMARK  status: ('A' for Active; 'I' for Inactive)
REMARK   1   A    between atoms:  C27_1   and   C6_8  
REMARK   2   A    between atoms:  C6_8    and   C5_9  
REMARK   3   A    between atoms:  C5_9    and   C3_12 
REMARK   4   A    between atoms:  C6_8    and   N7_14 
REMARK   5   A    between atoms:  C8_15   and  C10_17 
REMARK   6   A    between atoms: C10_17   and  O11_18 
REMARK   7   A    between atoms: O11_18   and  C12_19 
REMARK   8   A    between atoms: C13_20   and  C14_25 
REMARK   9   A    between atoms: C14_25   and  N15_26 
REMARK   10  A    between atoms: C24_24   and  O25_32 
ROOT
ATOM      1 C27  MOL A   1       5.407 -14.727 -11.204  1.00  0.00    -0.024 A 
ATOM      2 C28  MOL A   1       5.563 -13.560 -11.974  1.00  0.00    -0.057 A 
ATOM      3 C29  MOL A   1       4.555 -12.590 -11.999  1.00  0.00    -0.061 A 
ATOM      4 C30  MOL A   1       3.384 -12.774 -11.259  1.00  0.00    -0.048 A 
ATOM      5 C31  MOL A   1       3.218 -13.930 -10.486  1.00  0.00     0.018 A 
ATOM      6 Br32 MOL A   1       1.625 -14.172  -9.456  1.00  0.00    -0.051 Br
ATOM      7 C33  MOL A   1       4.221 -14.904 -10.463  1.00  0.00    -0.043 A 
ENDROOT
BRANCH   1   8
ATOM      8  C6  MOL A   1       6.469 -15.804 -11.239  1.00  0.00     0.063 C 
BRANCH   8   9
ATOM      9  C5  MOL A   1       6.439 -16.531 -12.596  1.00  0.00     0.051 C 
BRANCH   9  12
ATOM     10  C1  MOL A   1       9.702 -18.548 -13.270  1.00  0.00     0.006 C 
ATOM     11  N2  MOL A   1       8.719 -17.475 -13.224  1.00  0.00    -0.359 N 
ATOM     12  C3  MOL A   1       7.427 -17.661 -12.637  1.00  0.00     0.222 C 
ATOM     13  O4  MOL A   1       7.110 -18.779 -12.147  1.00  0.00    -0.275 OA
ENDBRANCH   9  12
ENDBRANCH   8   9
BRANCH   8  14
ATOM     14  N7  MOL A   1       6.266 -16.754 -10.140  1.00  0.00    -0.346 N 
ATOM     15  C8  MOL A   1       7.314 -17.128  -9.243  1.00  0.00     0.258 C 
ATOM     16  O9  MOL A   1       8.471 -16.649  -9.382  1.00  0.00    -0.271 OA
BRANCH  15  17
ATOM     17 C10  MOL A   1       7.046 -18.084  -8.119  1.00  0.00     0.167 C 
BRANCH  17  18
ATOM     18 O11  MOL A   1       8.077 -19.065  -8.041  1.00  0.00    -0.480 OA
BRANCH  18  19
ATOM     19 C12  MOL A   1       8.141 -20.146  -8.925  1.00  0.00     0.166 A 
ATOM     20 C13  MOL A   1       7.138 -21.142  -8.935  1.00  0.00     0.012 A 
ATOM     21 C21  MOL A   1       7.200 -22.167  -9.894  1.00  0.00    -0.054 A 
ATOM     22 C22  MOL A   1       8.263 -22.232 -10.794  1.00  0.00    -0.058 A 
ATOM     23 C23  MOL A   1       9.279 -21.276 -10.749  1.00  0.00    -0.016 A 
ATOM     24 C24  MOL A   1       9.228 -20.228  -9.811  1.00  0.00     0.161 A 
BRANCH  20  25
ATOM     25 C14  MOL A   1       5.998 -21.135  -7.941  1.00  0.00     0.028 C 
BRANCH  25  26
ATOM     26 N15  MOL A   1       4.765 -20.624  -8.573  1.00  0.00    -0.287 NA
ATOM     27 C16  MOL A   1       3.755 -20.252  -7.568  1.00  0.00     0.064 C 
ATOM     28 C17  MOL A   1       2.807 -21.351  -8.006  1.00  0.00     0.272 C 
ATOM     29 F18  MOL A   1       1.639 -20.881  -8.581  1.00  0.00    -0.204 F 
ATOM     30 F19  MOL A   1       2.606 -22.329  -7.046  1.00  0.00    -0.204 F 
ATOM     31 C20  MOL A   1       3.877 -21.711  -9.018  1.00  0.00     0.064 C 
ENDBRANCH  25  26
ENDBRANCH  20  25
BRANCH  24  32
ATOM     32 O25  MOL A   1      10.228 -19.249  -9.732  1.00  0.00    -0.493 OA
ATOM     33 C26  MOL A   1      11.159 -19.132  -8.662  1.00  0.00     0.078 C 
ENDBRANCH  24  32
ENDBRANCH  18  19
ENDBRANCH  17  18
ENDBRANCH  15  17
ENDBRANCH   8  14
ENDBRANCH   1   8
TORSDOF 10
ENDMDL
MODEL 185
REMARK VINA RESULT:    -7.408      5.351      9.757
REMARK INTER + INTRA:         -12.787
REMARK INTER:                 -11.638
REMARK INTRA:                  -1.149
REMARK UNBOUND:                -1.048
REMARK  10 active torsions:
REMARK  status: ('A' for Active; 'I' for Inactive)
REMARK   1   A    between atoms:  C27_1   and   C6_8  
REMARK   2   A    between atoms:  C6_8    and   C5_9  
REMARK   3   A    between atoms:  C5_9    and   C3_12 
REMARK   4   A    between atoms:  C6_8    and   N7_14 
REMARK   5   A    between atoms:  C8_15   and  C10_17 
REMARK   6   A    between atoms: C10_17   and  O11_18 
REMARK   7   A    between atoms: O11_18   and  C12_19 
REMARK   8   A    between atoms: C13_20   and  C14_25 
REMARK   9   A    between atoms: C14_25   and  N15_26 
REMARK   10  A    between atoms: C24_24   and  O25_32 
ROOT
ATOM      1 C27  MOL A   1       7.131 -17.127 -10.413  1.00  0.00    -0.024 A 
ATOM      2 C28  MOL A   1       7.389 -17.678 -11.681  1.00  0.00    -0.057 A 
ATOM      3 C29  MOL A   1       6.854 -17.088 -12.832  1.00  0.00    -0.061 A 
ATOM      4 C30  MOL A   1       6.057 -15.945 -12.728  1.00  0.00    -0.048 A 
ATOM      5 C31  MOL A   1       5.795 -15.384 -11.472  1.00  0.00     0.018 A 
ATOM      6 Br32 MOL A   1       4.723 -13.806 -11.333  1.00  0.00    -0.051 Br
ATOM      7 C33  MOL A   1       6.324 -15.974 -10.320  1.00  0.00    -0.043 A 
ENDROOT
BRANCH   1   8
ATOM      8  C6  MOL A   1       7.653 -17.812  -9.169  1.00  0.00     0.063 C 
BRANCH   8   9
ATOM      9  C5  MOL A   1       6.496 -18.078  -8.189  1.00  0.00     0.051 C 
BRANCH   9  12
ATOM     10  C1  MOL A   1       4.295 -21.261  -7.746  1.00  0.00     0.006 C 
ATOM     11  N2  MOL A   1       4.778 -19.890  -7.683  1.00  0.00    -0.359 N 
ATOM     12  C3  MOL A   1       6.030 -19.503  -8.261  1.00  0.00     0.222 C 
ATOM     13  O4  MOL A   1       6.750 -20.362  -8.840  1.00  0.00    -0.275 OA
ENDBRANCH   9  12
ENDBRANCH   8   9
BRANCH   8  14
ATOM     14  N7  MOL A   1       8.689 -16.992  -8.533  1.00  0.00    -0.346 N 
ATOM     15  C8  MOL A   1       9.722 -17.551  -7.719  1.00  0.00     0.258 C 
ATOM     16  O9  MOL A   1       9.764 -18.793  -7.512  1.00  0.00    -0.271 OA
BRANCH  15  17
ATOM     17 C10  MOL A   1      10.773 -16.670  -7.114  1.00  0.00     0.167 C 
BRANCH  17  18
ATOM     18 O11  MOL A   1      11.953 -16.680  -7.913  1.00  0.00    -0.480 OA
BRANCH  18  19
ATOM     19 C12  MOL A   1      13.057 -17.476  -7.595  1.00  0.00     0.166 A 
ATOM     20 C13  MOL A   1      14.013 -17.053  -6.643  1.00  0.00     0.012 A 
ATOM     21 C21  MOL A   1      15.063 -17.919  -6.295  1.00  0.00    -0.054 A 
ATOM     22 C22  MOL A   1      15.191 -19.161  -6.916  1.00  0.00    -0.058 A 
ATOM     23 C23  MOL A   1      14.276 -19.555  -7.892  1.00  0.00    -0.016 A 
ATOM     24 C24  MOL A   1      13.204 -18.714  -8.242  1.00  0.00     0.161 A 
BRANCH  20  25
ATOM     25 C14  MOL A   1      13.936 -15.691  -5.988  1.00  0.00     0.028 C 
BRANCH  25  26
ATOM     26 N15  MOL A   1      14.291 -15.787  -4.557  1.00  0.00    -0.287 NA
ATOM     27 C16  MOL A   1      13.330 -15.060  -3.711  1.00  0.00     0.064 C 
ATOM     28 C17  MOL A   1      14.366 -14.040  -3.283  1.00  0.00     0.272 C 
ATOM     29 F18  MOL A   1      14.690 -14.107  -1.939  1.00  0.00    -0.204 F 
ATOM     30 F19  MOL A   1      14.104 -12.756  -3.733  1.00  0.00    -0.204 F 
ATOM     31 C20  MOL A   1      15.323 -14.807  -4.174  1.00  0.00     0.064 C 
ENDBRANCH  25  26
ENDBRANCH  20  25
BRANCH  24  32
ATOM     32 O25  MOL A   1      12.263 -19.072  -9.218  1.00  0.00    -0.493 OA
ATOM     33 C26  MOL A   1      12.374 -18.750 -10.601  1.00  0.00     0.078 C 
ENDBRANCH  24  32
ENDBRANCH  18  19
ENDBRANCH  17  18
ENDBRANCH  15  17
ENDBRANCH   8  14
ENDBRANCH   1   8
TORSDOF 10
ENDMDL
MODEL 186
REMARK VINA RESULT:    -7.408      4.274      8.398
REMARK INTER + INTRA:         -12.786
REMARK INTER:                 -12.694
REMARK INTRA:                  -0.092
REMARK UNBOUND:                -1.048
REMARK  10 active torsions:
REMARK  status: ('A' for Active; 'I' for Inactive)
REMARK   1   A    between atoms:  C27_1   and   C6_8  
REMARK   2   A    between atoms:  C6_8    and   C5_9  
REMARK   3   A    between atoms:  C5_9    and   C3_12 
REMARK   4   A    between atoms:  C6_8    and   N7_14 
REMARK   5   A    between atoms:  C8_15   and  C10_17 
REMARK   6   A    between atoms: C10_17   and  O11_18 
REMARK   7   A    between atoms: O11_18   and  C12_19 
REMARK   8   A    between atoms: C13_20   and  C14_25 
REMARK   9   A    between atoms: C14_25   and  N15_26 
REMARK   10  A    between atoms: C24_24   and  O25_32 
ROOT
ATOM      1 C27  MOL A   1       4.189 -13.706 -11.494  1.00  0.00    -0.024 A 
ATOM      2 C28  MOL A   1       4.769 -13.998 -12.742  1.00  0.00    -0.057 A 
ATOM      3 C29  MOL A   1       4.820 -13.022 -13.744  1.00  0.00    -0.061 A 
ATOM      4 C30  MOL A   1       4.293 -11.749 -13.511  1.00  0.00    -0.048 A 
ATOM      5 C31  MOL A   1       3.716 -11.445 -12.273  1.00  0.00     0.018 A 
ATOM      6 Br32 MOL A   1       3.015  -9.695 -11.947  1.00  0.00    -0.051 Br
ATOM      7 C33  MOL A   1       3.659 -12.419 -11.271  1.00  0.00    -0.043 A 
ENDROOT
BRANCH   1   8
ATOM      8  C6  MOL A   1       4.073 -14.787 -10.442  1.00  0.00     0.063 C 
BRANCH   8   9
ATOM      9  C5  MOL A   1       3.089 -14.349  -9.342  1.00  0.00     0.051 C 
BRANCH   9  12
ATOM     10  C1  MOL A   1       4.577 -16.496  -6.452  1.00  0.00     0.006 C 
ATOM     11  N2  MOL A   1       4.456 -15.643  -7.626  1.00  0.00    -0.359 N 
ATOM     12  C3  MOL A   1       3.181 -15.238  -8.136  1.00  0.00     0.222 C 
ATOM     13  O4  MOL A   1       2.122 -15.626  -7.571  1.00  0.00    -0.275 OA
ENDBRANCH   9  12
ENDBRANCH   8   9
BRANCH   8  14
ATOM     14  N7  MOL A   1       5.390 -15.083  -9.869  1.00  0.00    -0.346 N 
ATOM     15  C8  MOL A   1       6.292 -16.022 -10.458  1.00  0.00     0.258 C 
ATOM     16  O9  MOL A   1       5.968 -16.644 -11.504  1.00  0.00    -0.271 OA
BRANCH  15  17
ATOM     17 C10  MOL A   1       7.638 -16.268  -9.846  1.00  0.00     0.167 C 
BRANCH  17  18
ATOM     18 O11  MOL A   1       7.524 -17.137  -8.721  1.00  0.00    -0.480 OA
BRANCH  18  19
ATOM     19 C12  MOL A   1       8.197 -18.360  -8.658  1.00  0.00     0.166 A 
ATOM     20 C13  MOL A   1       7.497 -19.585  -8.746  1.00  0.00     0.012 A 
ATOM     21 C21  MOL A   1       8.220 -20.789  -8.759  1.00  0.00    -0.054 A 
ATOM     22 C22  MOL A   1       9.610 -20.781  -8.637  1.00  0.00    -0.058 A 
ATOM     23 C23  MOL A   1      10.295 -19.573  -8.499  1.00  0.00    -0.016 A 
ATOM     24 C24  MOL A   1       9.593 -18.354  -8.505  1.00  0.00     0.161 A 
BRANCH  20  25
ATOM     25 C14  MOL A   1       5.987 -19.636  -8.826  1.00  0.00     0.028 C 
BRANCH  25  26
ATOM     26 N15  MOL A   1       5.483 -20.908  -8.270  1.00  0.00    -0.287 NA
ATOM     27 C16  MOL A   1       4.258 -21.352  -8.956  1.00  0.00     0.064 C 
ATOM     28 C17  MOL A   1       3.408 -21.167  -7.715  1.00  0.00     0.272 C 
ATOM     29 F18  MOL A   1       2.914 -22.352  -7.198  1.00  0.00    -0.204 F 
ATOM     30 F19  MOL A   1       2.456 -20.167  -7.835  1.00  0.00    -0.204 F 
ATOM     31 C20  MOL A   1       4.688 -20.703  -7.047  1.00  0.00     0.064 C 
ENDBRANCH  25  26
ENDBRANCH  20  25
BRANCH  24  32
ATOM     32 O25  MOL A   1      10.243 -17.119  -8.368  1.00  0.00    -0.493 OA
ATOM     33 C26  MOL A   1      10.844 -16.653  -7.164  1.00  0.00     0.078 C 
ENDBRANCH  24  32
ENDBRANCH  18  19
ENDBRANCH  17  18
ENDBRANCH  15  17
ENDBRANCH   8  14
ENDBRANCH   1   8
TORSDOF 10
ENDMDL
MODEL 187
REMARK VINA RESULT:    -7.406      6.128     10.943
REMARK INTER + INTRA:         -12.784
REMARK INTER:                 -11.421
REMARK INTRA:                  -1.363
REMARK UNBOUND:                -1.048
REMARK  10 active torsions:
REMARK  status: ('A' for Active; 'I' for Inactive)
REMARK   1   A    between atoms:  C27_1   and   C6_8  
REMARK   2   A    between atoms:  C6_8    and   C5_9  
REMARK   3   A    between atoms:  C5_9    and   C3_12 
REMARK   4   A    between atoms:  C6_8    and   N7_14 
REMARK   5   A    between atoms:  C8_15   and  C10_17 
REMARK   6   A    between atoms: C10_17   and  O11_18 
REMARK   7   A    between atoms: O11_18   and  C12_19 
REMARK   8   A    between atoms: C13_20   and  C14_25 
REMARK   9   A    between atoms: C14_25   and  N15_26 
REMARK   10  A    between atoms: C24_24   and  O25_32 
ROOT
ATOM      1 C27  MOL A   1       8.031 -17.537  -9.309  1.00  0.00    -0.024 A 
ATOM      2 C28  MOL A   1       7.812 -16.899 -10.544  1.00  0.00    -0.057 A 
ATOM      3 C29  MOL A   1       6.687 -16.088 -10.731  1.00  0.00    -0.061 A 
ATOM      4 C30  MOL A   1       5.772 -15.907  -9.690  1.00  0.00    -0.048 A 
ATOM      5 C31  MOL A   1       5.980 -16.533  -8.456  1.00  0.00     0.018 A 
ATOM      6 Br32 MOL A   1       4.739 -16.267  -7.025  1.00  0.00    -0.051 Br
ATOM      7 C33  MOL A   1       7.101 -17.349  -8.267  1.00  0.00    -0.043 A 
ENDROOT
BRANCH   1   8
ATOM      8  C6  MOL A   1       9.211 -18.470  -9.138  1.00  0.00     0.063 C 
BRANCH   8   9
ATOM      9  C5  MOL A   1       8.717 -19.887  -8.795  1.00  0.00     0.051 C 
BRANCH   9  12
ATOM     10  C1  MOL A   1       9.623 -23.305 -10.428  1.00  0.00     0.006 C 
ATOM     11  N2  MOL A   1       9.155 -22.298  -9.486  1.00  0.00    -0.359 N 
ATOM     12  C3  MOL A   1       9.218 -20.899  -9.783  1.00  0.00     0.222 C 
ATOM     13  O4  MOL A   1       9.694 -20.507 -10.883  1.00  0.00    -0.275 OA
ENDBRANCH   9  12
ENDBRANCH   8   9
BRANCH   8  14
ATOM     14  N7  MOL A   1      10.108 -17.968  -8.092  1.00  0.00    -0.346 N 
ATOM     15  C8  MOL A   1      11.517 -17.833  -8.288  1.00  0.00     0.258 C 
ATOM     16  O9  MOL A   1      12.040 -18.159  -9.387  1.00  0.00    -0.271 OA
BRANCH  15  17
ATOM     17 C10  MOL A   1      12.386 -17.290  -7.193  1.00  0.00     0.167 C 
BRANCH  17  18
ATOM     18 O11  MOL A   1      13.763 -17.403  -7.546  1.00  0.00    -0.480 OA
BRANCH  18  19
ATOM     19 C12  MOL A   1      14.786 -17.196  -6.617  1.00  0.00     0.166 A 
ATOM     20 C13  MOL A   1      15.475 -18.284  -6.035  1.00  0.00     0.012 A 
ATOM     21 C21  MOL A   1      16.549 -18.029  -5.166  1.00  0.00    -0.054 A 
ATOM     22 C22  MOL A   1      16.902 -16.719  -4.842  1.00  0.00    -0.058 A 
ATOM     23 C23  MOL A   1      16.188 -15.648  -5.379  1.00  0.00    -0.016 A 
ATOM     24 C24  MOL A   1      15.121 -15.878  -6.267  1.00  0.00     0.161 A 
BRANCH  20  25
ATOM     25 C14  MOL A   1      15.087 -19.718  -6.320  1.00  0.00     0.028 C 
BRANCH  25  26
ATOM     26 N15  MOL A   1      15.969 -20.296  -7.354  1.00  0.00    -0.287 NA
ATOM     27 C16  MOL A   1      15.252 -20.506  -8.623  1.00  0.00     0.064 C 
ATOM     28 C17  MOL A   1      15.377 -22.014  -8.529  1.00  0.00     0.272 C 
ATOM     29 F18  MOL A   1      16.186 -22.567  -9.506  1.00  0.00    -0.204 F 
ATOM     30 F19  MOL A   1      14.165 -22.665  -8.369  1.00  0.00    -0.204 F 
ATOM     31 C20  MOL A   1      16.100 -21.757  -7.220  1.00  0.00     0.064 C 
ENDBRANCH  25  26
ENDBRANCH  20  25
BRANCH  24  32
ATOM     32 O25  MOL A   1      14.378 -14.829  -6.828  1.00  0.00    -0.493 OA
ATOM     33 C26  MOL A   1      14.762 -14.101  -7.990  1.00  0.00     0.078 C 
ENDBRANCH  24  32
ENDBRANCH  18  19
ENDBRANCH  17  18
ENDBRANCH  15  17
ENDBRANCH   8  14
ENDBRANCH   1   8
TORSDOF 10
ENDMDL
MODEL 188
REMARK VINA RESULT:    -7.404      7.044     11.504
REMARK INTER + INTRA:         -12.781
REMARK INTER:                 -10.809
REMARK INTRA:                  -1.972
REMARK UNBOUND:                -1.048
REMARK  10 active torsions:
REMARK  status: ('A' for Active; 'I' for Inactive)
REMARK   1   A    between atoms:  C27_1   and   C6_8  
REMARK   2   A    between atoms:  C6_8    and   C5_9  
REMARK   3   A    between atoms:  C5_9    and   C3_12 
REMARK   4   A    between atoms:  C6_8    and   N7_14 
REMARK   5   A    between atoms:  C8_15   and  C10_17 
REMARK   6   A    between atoms: C10_17   and  O11_18 
REMARK   7   A    between atoms: O11_18   and  C12_19 
REMARK   8   A    between atoms: C13_20   and  C14_25 
REMARK   9   A    between atoms: C14_25   and  N15_26 
REMARK   10  A    between atoms: C24_24   and  O25_32 
ROOT
ATOM      1 C27  MOL A   1      16.529 -16.020  -3.986  1.00  0.00    -0.024 A 
ATOM      2 C28  MOL A   1      17.637 -15.182  -3.763  1.00  0.00    -0.057 A 
ATOM      3 C29  MOL A   1      18.908 -15.553  -4.217  1.00  0.00    -0.061 A 
ATOM      4 C30  MOL A   1      19.084 -16.762  -4.896  1.00  0.00    -0.048 A 
ATOM      5 C31  MOL A   1      17.990 -17.603  -5.126  1.00  0.00     0.018 A 
ATOM      6 Br32 MOL A   1      18.229 -19.247  -6.074  1.00  0.00    -0.051 Br
ATOM      7 C33  MOL A   1      16.720 -17.238  -4.669  1.00  0.00    -0.043 A 
ENDROOT
BRANCH   1   8
ATOM      8  C6  MOL A   1      15.173 -15.646  -3.428  1.00  0.00     0.063 C 
BRANCH   8   9
ATOM      9  C5  MOL A   1      14.949 -16.343  -2.074  1.00  0.00     0.051 C 
BRANCH   9  12
ATOM     10  C1  MOL A   1      13.880 -14.879   1.373  1.00  0.00     0.006 C 
ATOM     11  N2  MOL A   1      14.227 -15.810   0.309  1.00  0.00    -0.359 N 
ATOM     12  C3  MOL A   1      14.586 -15.358  -1.001  1.00  0.00     0.222 C 
ATOM     13  O4  MOL A   1      14.603 -14.124  -1.262  1.00  0.00    -0.275 OA
ENDBRANCH   9  12
ENDBRANCH   8   9
BRANCH   8  14
ATOM     14  N7  MOL A   1      14.116 -16.009  -4.378  1.00  0.00    -0.346 N 
ATOM     15  C8  MOL A   1      13.500 -15.054  -5.245  1.00  0.00     0.258 C 
ATOM     16  O9  MOL A   1      13.850 -13.845  -5.209  1.00  0.00    -0.271 OA
BRANCH  15  17
ATOM     17 C10  MOL A   1      12.441 -15.484  -6.216  1.00  0.00     0.167 C 
BRANCH  17  18
ATOM     18 O11  MOL A   1      12.966 -15.525  -7.541  1.00  0.00    -0.480 OA
BRANCH  18  19
ATOM     19 C12  MOL A   1      13.798 -16.559  -7.977  1.00  0.00     0.166 A 
ATOM     20 C13  MOL A   1      13.293 -17.861  -8.199  1.00  0.00     0.012 A 
ATOM     21 C21  MOL A   1      14.148 -18.850  -8.713  1.00  0.00    -0.054 A 
ATOM     22 C22  MOL A   1      15.492 -18.567  -8.956  1.00  0.00    -0.058 A 
ATOM     23 C23  MOL A   1      16.000 -17.296  -8.689  1.00  0.00    -0.016 A 
ATOM     24 C24  MOL A   1      15.158 -16.283  -8.193  1.00  0.00     0.161 A 
BRANCH  20  25
ATOM     25 C14  MOL A   1      11.854 -18.219  -7.896  1.00  0.00     0.028 C 
BRANCH  25  26
ATOM     26 N15  MOL A   1      10.960 -17.693  -8.948  1.00  0.00    -0.287 NA
ATOM     27 C16  MOL A   1       9.663 -17.269  -8.393  1.00  0.00     0.064 C 
ATOM     28 C17  MOL A   1       8.908 -18.355  -9.134  1.00  0.00     0.272 C 
ATOM     29 F18  MOL A   1       8.051 -17.871 -10.107  1.00  0.00    -0.204 F 
ATOM     30 F19  MOL A   1       8.334 -19.302  -8.301  1.00  0.00    -0.204 F 
ATOM     31 C20  MOL A   1      10.263 -18.770  -9.673  1.00  0.00     0.064 C 
ENDBRANCH  25  26
ENDBRANCH  20  25
BRANCH  24  32
ATOM     32 O25  MOL A   1      15.630 -14.993  -7.911  1.00  0.00    -0.493 OA
ATOM     33 C26  MOL A   1      16.901 -14.708  -7.336  1.00  0.00     0.078 C 
ENDBRANCH  24  32
ENDBRANCH  18  19
ENDBRANCH  17  18
ENDBRANCH  15  17
ENDBRANCH   8  14
ENDBRANCH   1   8
TORSDOF 10
ENDMDL
MODEL 189
REMARK VINA RESULT:    -7.404      5.829     10.721
REMARK INTER + INTRA:         -12.780
REMARK INTER:                 -11.971
REMARK INTRA:                  -0.809
REMARK UNBOUND:                -1.048
REMARK  10 active torsions:
REMARK  status: ('A' for Active; 'I' for Inactive)
REMARK   1   A    between atoms:  C27_1   and   C6_8  
REMARK   2   A    between atoms:  C6_8    and   C5_9  
REMARK   3   A    between atoms:  C5_9    and   C3_12 
REMARK   4   A    between atoms:  C6_8    and   N7_14 
REMARK   5   A    between atoms:  C8_15   and  C10_17 
REMARK   6   A    between atoms: C10_17   and  O11_18 
REMARK   7   A    between atoms: O11_18   and  C12_19 
REMARK   8   A    between atoms: C13_20   and  C14_25 
REMARK   9   A    between atoms: C14_25   and  N15_26 
REMARK   10  A    between atoms: C24_24   and  O25_32 
ROOT
ATOM      1 C27  MOL A   1       7.107 -16.984 -10.581  1.00  0.00    -0.024 A 
ATOM      2 C28  MOL A   1       7.278 -17.607 -11.831  1.00  0.00    -0.057 A 
ATOM      3 C29  MOL A   1       6.708 -17.052 -12.982  1.00  0.00    -0.061 A 
ATOM      4 C30  MOL A   1       5.964 -15.872 -12.898  1.00  0.00    -0.048 A 
ATOM      5 C31  MOL A   1       5.789 -15.240 -11.661  1.00  0.00     0.018 A 
ATOM      6 Br32 MOL A   1       4.789 -13.613 -11.550  1.00  0.00    -0.051 Br
ATOM      7 C33  MOL A   1       6.353 -15.795 -10.508  1.00  0.00    -0.043 A 
ENDROOT
BRANCH   1   8
ATOM      8  C6  MOL A   1       7.664 -17.629  -9.331  1.00  0.00     0.063 C 
BRANCH   8   9
ATOM      9  C5  MOL A   1       7.480 -16.689  -8.126  1.00  0.00     0.051 C 
BRANCH   9  12
ATOM     10  C1  MOL A   1       4.196 -15.858  -6.204  1.00  0.00     0.006 C 
ATOM     11  N2  MOL A   1       5.521 -15.751  -6.796  1.00  0.00    -0.359 N 
ATOM     12  C3  MOL A   1       6.116 -16.835  -7.517  1.00  0.00     0.222 C 
ATOM     13  O4  MOL A   1       5.493 -17.924  -7.649  1.00  0.00    -0.275 OA
ENDBRANCH   9  12
ENDBRANCH   8   9
BRANCH   8  14
ATOM     14  N7  MOL A   1       9.082 -17.958  -9.517  1.00  0.00    -0.346 N 
ATOM     15  C8  MOL A   1       9.716 -19.040  -8.834  1.00  0.00     0.258 C 
ATOM     16  O9  MOL A   1       9.062 -19.752  -8.026  1.00  0.00    -0.271 OA
BRANCH  15  17
ATOM     17 C10  MOL A   1      11.162 -19.350  -9.081  1.00  0.00     0.167 C 
BRANCH  17  18
ATOM     18 O11  MOL A   1      11.778 -19.839  -7.892  1.00  0.00    -0.480 OA
BRANCH  18  19
ATOM     19 C12  MOL A   1      13.010 -20.499  -7.912  1.00  0.00     0.166 A 
ATOM     20 C13  MOL A   1      13.082 -21.911  -7.896  1.00  0.00     0.012 A 
ATOM     21 C21  MOL A   1      14.338 -22.534  -7.997  1.00  0.00    -0.054 A 
ATOM     22 C22  MOL A   1      15.503 -21.771  -8.065  1.00  0.00    -0.058 A 
ATOM     23 C23  MOL A   1      15.432 -20.378  -8.031  1.00  0.00    -0.016 A 
ATOM     24 C24  MOL A   1      14.185 -19.731  -7.950  1.00  0.00     0.161 A 
BRANCH  20  25
ATOM     25 C14  MOL A   1      11.844 -22.771  -7.769  1.00  0.00     0.028 C 
BRANCH  25  26
ATOM     26 N15  MOL A   1      11.586 -23.492  -9.032  1.00  0.00    -0.287 NA
ATOM     27 C16  MOL A   1      10.143 -23.672  -9.268  1.00  0.00     0.064 C 
ATOM     28 C17  MOL A   1      10.234 -25.179  -9.126  1.00  0.00     0.272 C 
ATOM     29 F18  MOL A   1       9.973 -25.864 -10.300  1.00  0.00    -0.204 F 
ATOM     30 F19  MOL A   1       9.560 -25.677  -8.024  1.00  0.00    -0.204 F 
ATOM     31 C20  MOL A   1      11.712 -24.951  -8.875  1.00  0.00     0.064 C 
ENDBRANCH  25  26
ENDBRANCH  20  25
BRANCH  24  32
ATOM     32 O25  MOL A   1      14.071 -18.334  -7.912  1.00  0.00    -0.493 OA
ATOM     33 C26  MOL A   1      15.097 -17.431  -8.310  1.00  0.00     0.078 C 
ENDBRANCH  24  32
ENDBRANCH  18  19
ENDBRANCH  17  18
ENDBRANCH  15  17
ENDBRANCH   8  14
ENDBRANCH   1   8
TORSDOF 10
ENDMDL
MODEL 190
REMARK VINA RESULT:    -7.403      5.508      9.932
REMARK INTER + INTRA:         -12.779
REMARK INTER:                 -12.454
REMARK INTRA:                  -0.324
REMARK UNBOUND:                -1.048
REMARK  10 active torsions:
REMARK  status: ('A' for Active; 'I' for Inactive)
REMARK   1   A    between atoms:  C27_1   and   C6_8  
REMARK   2   A    between atoms:  C6_8    and   C5_9  
REMARK   3   A    between atoms:  C5_9    and   C3_12 
REMARK   4   A    between atoms:  C6_8    and   N7_14 
REMARK   5   A    between atoms:  C8_15   and  C10_17 
REMARK   6   A    between atoms: C10_17   and  O11_18 
REMARK   7   A    between atoms: O11_18   and  C12_19 
REMARK   8   A    between atoms: C13_20   and  C14_25 
REMARK   9   A    between atoms: C14_25   and  N15_26 
REMARK   10  A    between atoms: C24_24   and  O25_32 
ROOT
ATOM      1 C27  MOL A   1       7.450 -18.837  -9.623  1.00  0.00    -0.024 A 
ATOM      2 C28  MOL A   1       7.635 -18.085 -10.797  1.00  0.00    -0.057 A 
ATOM      3 C29  MOL A   1       7.128 -16.784 -10.891  1.00  0.00    -0.061 A 
ATOM      4 C30  MOL A   1       6.432 -16.223  -9.816  1.00  0.00    -0.048 A 
ATOM      5 C31  MOL A   1       6.245 -16.960  -8.641  1.00  0.00     0.018 A 
ATOM      6 Br32 MOL A   1       5.312 -16.183  -7.163  1.00  0.00    -0.051 Br
ATOM      7 C33  MOL A   1       6.746 -18.262  -8.546  1.00  0.00    -0.043 A 
ENDROOT
BRANCH   1   8
ATOM      8  C6  MOL A   1       7.938 -20.268  -9.556  1.00  0.00     0.063 C 
BRANCH   8   9
ATOM      9  C5  MOL A   1       7.379 -20.958  -8.298  1.00  0.00     0.051 C 
BRANCH   9  12
ATOM     10  C1  MOL A   1       4.162 -22.167 -10.131  1.00  0.00     0.006 C 
ATOM     11  N2  MOL A   1       5.490 -21.633  -9.868  1.00  0.00    -0.359 N 
ATOM     12  C3  MOL A   1       6.001 -21.503  -8.536  1.00  0.00     0.222 C 
ATOM     13  O4  MOL A   1       5.294 -21.851  -7.551  1.00  0.00    -0.275 OA
ENDBRANCH   9  12
ENDBRANCH   8   9
BRANCH   8  14
ATOM     14  N7  MOL A   1       9.405 -20.306  -9.556  1.00  0.00    -0.346 N 
ATOM     15  C8  MOL A   1      10.189 -19.747  -8.500  1.00  0.00     0.258 C 
ATOM     16  O9  MOL A   1       9.628 -19.184  -7.522  1.00  0.00    -0.271 OA
BRANCH  15  17
ATOM     17 C10  MOL A   1      11.685 -19.836  -8.538  1.00  0.00     0.167 C 
BRANCH  17  18
ATOM     18 O11  MOL A   1      12.226 -19.695  -7.226  1.00  0.00    -0.480 OA
BRANCH  18  19
ATOM     19 C12  MOL A   1      13.524 -20.107  -6.912  1.00  0.00     0.166 A 
ATOM     20 C13  MOL A   1      14.622 -19.226  -7.039  1.00  0.00     0.012 A 
ATOM     21 C21  MOL A   1      15.897 -19.657  -6.637  1.00  0.00    -0.054 A 
ATOM     22 C22  MOL A   1      16.088 -20.955  -6.162  1.00  0.00    -0.058 A 
ATOM     23 C23  MOL A   1      15.012 -21.839  -6.085  1.00  0.00    -0.016 A 
ATOM     24 C24  MOL A   1      13.722 -21.424  -6.463  1.00  0.00     0.161 A 
BRANCH  20  25
ATOM     25 C14  MOL A   1      14.462 -17.830  -7.599  1.00  0.00     0.028 C 
BRANCH  25  26
ATOM     26 N15  MOL A   1      14.084 -16.885  -6.528  1.00  0.00    -0.287 NA
ATOM     27 C16  MOL A   1      13.079 -15.914  -6.993  1.00  0.00     0.064 C 
ATOM     28 C17  MOL A   1      14.038 -14.747  -6.859  1.00  0.00     0.272 C 
ATOM     29 F18  MOL A   1      13.681 -13.845  -5.872  1.00  0.00    -0.204 F 
ATOM     30 F19  MOL A   1      14.368 -14.155  -8.067  1.00  0.00    -0.204 F 
ATOM     31 C20  MOL A   1      15.048 -15.779  -6.398  1.00  0.00     0.064 C 
ENDBRANCH  25  26
ENDBRANCH  20  25
BRANCH  24  32
ATOM     32 O25  MOL A   1      12.615 -22.281  -6.401  1.00  0.00    -0.493 OA
ATOM     33 C26  MOL A   1      12.698 -23.699  -6.299  1.00  0.00     0.078 C 
ENDBRANCH  24  32
ENDBRANCH  18  19
ENDBRANCH  17  18
ENDBRANCH  15  17
ENDBRANCH   8  14
ENDBRANCH   1   8
TORSDOF 10
ENDMDL
MODEL 191
REMARK VINA RESULT:    -7.400      5.223     10.259
REMARK INTER + INTRA:         -12.774
REMARK INTER:                 -11.518
REMARK INTRA:                  -1.256
REMARK UNBOUND:                -1.048
REMARK  10 active torsions:
REMARK  status: ('A' for Active; 'I' for Inactive)
REMARK   1   A    between atoms:  C27_1   and   C6_8  
REMARK   2   A    between atoms:  C6_8    and   C5_9  
REMARK   3   A    between atoms:  C5_9    and   C3_12 
REMARK   4   A    between atoms:  C6_8    and   N7_14 
REMARK   5   A    between atoms:  C8_15   and  C10_17 
REMARK   6   A    between atoms: C10_17   and  O11_18 
REMARK   7   A    between atoms: O11_18   and  C12_19 
REMARK   8   A    between atoms: C13_20   and  C14_25 
REMARK   9   A    between atoms: C14_25   and  N15_26 
REMARK   10  A    between atoms: C24_24   and  O25_32 
ROOT
ATOM      1 C27  MOL A   1       6.960 -18.706  -9.354  1.00  0.00    -0.024 A 
ATOM      2 C28  MOL A   1       6.072 -18.626  -8.265  1.00  0.00    -0.057 A 
ATOM      3 C29  MOL A   1       5.283 -19.727  -7.914  1.00  0.00    -0.061 A 
ATOM      4 C30  MOL A   1       5.371 -20.915  -8.644  1.00  0.00    -0.048 A 
ATOM      5 C31  MOL A   1       6.253 -21.009  -9.727  1.00  0.00     0.018 A 
ATOM      6 Br32 MOL A   1       6.389 -22.643 -10.713  1.00  0.00    -0.051 Br
ATOM      7 C33  MOL A   1       7.040 -19.909 -10.085  1.00  0.00    -0.043 A 
ENDROOT
BRANCH   1   8
ATOM      8  C6  MOL A   1       7.757 -17.489  -9.772  1.00  0.00     0.063 C 
BRANCH   8   9
ATOM      9  C5  MOL A   1       7.321 -17.031 -11.176  1.00  0.00     0.051 C 
BRANCH   9  12
ATOM     10  C1  MOL A   1       4.697 -14.367 -12.265  1.00  0.00     0.006 C 
ATOM     11  N2  MOL A   1       5.734 -15.388 -12.301  1.00  0.00    -0.359 N 
ATOM     12  C3  MOL A   1       6.260 -15.972 -11.105  1.00  0.00     0.222 C 
ATOM     13  O4  MOL A   1       5.830 -15.601  -9.978  1.00  0.00    -0.275 OA
ENDBRANCH   9  12
ENDBRANCH   8   9
BRANCH   8  14
ATOM     14  N7  MOL A   1       9.192 -17.789  -9.749  1.00  0.00    -0.346 N 
ATOM     15  C8  MOL A   1      10.049 -17.365  -8.686  1.00  0.00     0.258 C 
ATOM     16  O9  MOL A   1       9.585 -16.698  -7.723  1.00  0.00    -0.271 OA
BRANCH  15  17
ATOM     17 C10  MOL A   1      11.506 -17.721  -8.699  1.00  0.00     0.167 C 
BRANCH  17  18
ATOM     18 O11  MOL A   1      11.874 -18.358  -7.478  1.00  0.00    -0.480 OA
BRANCH  18  19
ATOM     19 C12  MOL A   1      12.649 -19.521  -7.452  1.00  0.00     0.166 A 
ATOM     20 C13  MOL A   1      14.024 -19.476  -7.125  1.00  0.00     0.012 A 
ATOM     21 C21  MOL A   1      14.746 -20.677  -7.034  1.00  0.00    -0.054 A 
ATOM     22 C22  MOL A   1      14.129 -21.897  -7.310  1.00  0.00    -0.058 A 
ATOM     23 C23  MOL A   1      12.785 -21.935  -7.682  1.00  0.00    -0.016 A 
ATOM     24 C24  MOL A   1      12.036 -20.746  -7.760  1.00  0.00     0.161 A 
BRANCH  20  25
ATOM     25 C14  MOL A   1      14.740 -18.168  -6.871  1.00  0.00     0.028 C 
BRANCH  25  26
ATOM     26 N15  MOL A   1      16.028 -18.409  -6.189  1.00  0.00    -0.287 NA
ATOM     27 C16  MOL A   1      16.339 -17.339  -5.225  1.00  0.00     0.064 C 
ATOM     28 C17  MOL A   1      17.537 -16.867  -6.025  1.00  0.00     0.272 C 
ATOM     29 F18  MOL A   1      18.748 -17.070  -5.385  1.00  0.00    -0.204 F 
ATOM     30 F19  MOL A   1      17.389 -15.596  -6.554  1.00  0.00    -0.204 F 
ATOM     31 C20  MOL A   1      17.177 -17.971  -7.000  1.00  0.00     0.064 C 
ENDBRANCH  25  26
ENDBRANCH  20  25
BRANCH  24  32
ATOM     32 O25  MOL A   1      10.683 -20.740  -8.131  1.00  0.00    -0.493 OA
ATOM     33 C26  MOL A   1      10.094 -21.663  -9.041  1.00  0.00     0.078 C 
ENDBRANCH  24  32
ENDBRANCH  18  19
ENDBRANCH  17  18
ENDBRANCH  15  17
ENDBRANCH   8  14
ENDBRANCH   1   8
TORSDOF 10
ENDMDL
MODEL 192
REMARK VINA RESULT:    -7.400      6.474      9.573
REMARK INTER + INTRA:         -12.774
REMARK INTER:                 -12.392
REMARK INTRA:                  -0.382
REMARK UNBOUND:                -1.048
REMARK  10 active torsions:
REMARK  status: ('A' for Active; 'I' for Inactive)
REMARK   1   A    between atoms:  C27_1   and   C6_8  
REMARK   2   A    between atoms:  C6_8    and   C5_9  
REMARK   3   A    between atoms:  C5_9    and   C3_12 
REMARK   4   A    between atoms:  C6_8    and   N7_14 
REMARK   5   A    between atoms:  C8_15   and  C10_17 
REMARK   6   A    between atoms: C10_17   and  O11_18 
REMARK   7   A    between atoms: O11_18   and  C12_19 
REMARK   8   A    between atoms: C13_20   and  C14_25 
REMARK   9   A    between atoms: C14_25   and  N15_26 
REMARK   10  A    between atoms: C24_24   and  O25_32 
ROOT
ATOM      1 C27  MOL A   1       0.395 -22.014  -8.751  1.00  0.00    -0.024 A 
ATOM      2 C28  MOL A   1       0.405 -23.084  -7.839  1.00  0.00    -0.057 A 
ATOM      3 C29  MOL A   1      -0.541 -23.145  -6.810  1.00  0.00    -0.061 A 
ATOM      4 C30  MOL A   1      -1.503 -22.139  -6.681  1.00  0.00    -0.048 A 
ATOM      5 C31  MOL A   1      -1.525 -21.070  -7.584  1.00  0.00     0.018 A 
ATOM      6 Br32 MOL A   1      -2.856 -19.706  -7.421  1.00  0.00    -0.051 Br
ATOM      7 C33  MOL A   1      -0.578 -21.004  -8.611  1.00  0.00    -0.043 A 
ENDROOT
BRANCH   1   8
ATOM      8  C6  MOL A   1       1.466 -21.918  -9.817  1.00  0.00     0.063 C 
BRANCH   8   9
ATOM      9  C5  MOL A   1       1.243 -23.001 -10.887  1.00  0.00     0.051 C 
BRANCH   9  12
ATOM     10  C1  MOL A   1      -2.113 -21.913 -12.537  1.00  0.00     0.006 C 
ATOM     11  N2  MOL A   1      -0.737 -21.913 -12.061  1.00  0.00    -0.359 N 
ATOM     12  C3  MOL A   1      -0.183 -23.028 -11.355  1.00  0.00     0.222 C 
ATOM     13  O4  MOL A   1      -0.891 -24.046 -11.124  1.00  0.00    -0.275 OA
ENDBRANCH   9  12
ENDBRANCH   8   9
BRANCH   8  14
ATOM     14  N7  MOL A   1       2.796 -22.053  -9.214  1.00  0.00    -0.346 N 
ATOM     15  C8  MOL A   1       3.314 -21.109  -8.275  1.00  0.00     0.258 C 
ATOM     16  O9  MOL A   1       2.630 -20.106  -7.938  1.00  0.00    -0.271 OA
BRANCH  15  17
ATOM     17 C10  MOL A   1       4.671 -21.308  -7.669  1.00  0.00     0.167 C 
BRANCH  17  18
ATOM     18 O11  MOL A   1       5.171 -20.079  -7.149  1.00  0.00    -0.480 OA
BRANCH  18  19
ATOM     19 C12  MOL A   1       5.879 -19.172  -7.942  1.00  0.00     0.166 A 
ATOM     20 C13  MOL A   1       6.925 -19.603  -8.789  1.00  0.00     0.012 A 
ATOM     21 C21  MOL A   1       7.557 -18.669  -9.628  1.00  0.00    -0.054 A 
ATOM     22 C22  MOL A   1       7.191 -17.324  -9.591  1.00  0.00    -0.058 A 
ATOM     23 C23  MOL A   1       6.193 -16.892  -8.718  1.00  0.00    -0.016 A 
ATOM     24 C24  MOL A   1       5.532 -17.812  -7.883  1.00  0.00     0.161 A 
BRANCH  20  25
ATOM     25 C14  MOL A   1       7.386 -21.044  -8.817  1.00  0.00     0.028 C 
BRANCH  25  26
ATOM     26 N15  MOL A   1       8.213 -21.298 -10.014  1.00  0.00    -0.287 NA
ATOM     27 C16  MOL A   1       7.832 -22.556 -10.679  1.00  0.00     0.064 C 
ATOM     28 C17  MOL A   1       9.161 -23.212 -10.360  1.00  0.00     0.272 C 
ATOM     29 F18  MOL A   1       9.935 -23.473 -11.477  1.00  0.00    -0.204 F 
ATOM     30 F19  MOL A   1       9.059 -24.282  -9.485  1.00  0.00    -0.204 F 
ATOM     31 C20  MOL A   1       9.511 -21.906  -9.674  1.00  0.00     0.064 C 
ENDBRANCH  25  26
ENDBRANCH  20  25
BRANCH  24  32
ATOM     32 O25  MOL A   1       4.524 -17.419  -6.990  1.00  0.00    -0.493 OA
ATOM     33 C26  MOL A   1       4.423 -16.122  -6.411  1.00  0.00     0.078 C 
ENDBRANCH  24  32
ENDBRANCH  18  19
ENDBRANCH  17  18
ENDBRANCH  15  17
ENDBRANCH   8  14
ENDBRANCH   1   8
TORSDOF 10
ENDMDL
MODEL 193
REMARK VINA RESULT:    -7.396      5.662     10.605
REMARK INTER + INTRA:         -12.768
REMARK INTER:                 -12.004
REMARK INTRA:                  -0.764
REMARK UNBOUND:                -1.048
REMARK  10 active torsions:
REMARK  status: ('A' for Active; 'I' for Inactive)
REMARK   1   A    between atoms:  C27_1   and   C6_8  
REMARK   2   A    between atoms:  C6_8    and   C5_9  
REMARK   3   A    between atoms:  C5_9    and   C3_12 
REMARK   4   A    between atoms:  C6_8    and   N7_14 
REMARK   5   A    between atoms:  C8_15   and  C10_17 
REMARK   6   A    between atoms: C10_17   and  O11_18 
REMARK   7   A    between atoms: O11_18   and  C12_19 
REMARK   8   A    between atoms: C13_20   and  C14_25 
REMARK   9   A    between atoms: C14_25   and  N15_26 
REMARK   10  A    between atoms: C24_24   and  O25_32 
ROOT
ATOM      1 C27  MOL A   1       7.909 -19.592  -9.456  1.00  0.00    -0.024 A 
ATOM      2 C28  MOL A   1       8.549 -20.755  -9.922  1.00  0.00    -0.057 A 
ATOM      3 C29  MOL A   1       8.049 -22.019  -9.592  1.00  0.00    -0.061 A 
ATOM      4 C30  MOL A   1       6.907 -22.135  -8.793  1.00  0.00    -0.048 A 
ATOM      5 C31  MOL A   1       6.259 -20.986  -8.326  1.00  0.00     0.018 A 
ATOM      6 Br32 MOL A   1       4.684 -21.145  -7.251  1.00  0.00    -0.051 Br
ATOM      7 C33  MOL A   1       6.760 -19.721  -8.650  1.00  0.00    -0.043 A 
ENDROOT
BRANCH   1   8
ATOM      8  C6  MOL A   1       8.498 -18.231  -9.757  1.00  0.00     0.063 C 
BRANCH   8   9
ATOM      9  C5  MOL A   1       7.840 -17.639 -11.017  1.00  0.00     0.051 C 
BRANCH   9  12
ATOM     10  C1  MOL A   1       5.408 -14.621 -11.402  1.00  0.00     0.006 C 
ATOM     11  N2  MOL A   1       6.329 -15.707 -11.703  1.00  0.00    -0.359 N 
ATOM     12  C3  MOL A   1       6.901 -16.519 -10.673  1.00  0.00     0.222 C 
ATOM     13  O4  MOL A   1       6.615 -16.301  -9.464  1.00  0.00    -0.275 OA
ENDBRANCH   9  12
ENDBRANCH   8   9
BRANCH   8  14
ATOM     14  N7  MOL A   1       9.951 -18.334  -9.933  1.00  0.00    -0.346 N 
ATOM     15  C8  MOL A   1      10.880 -17.768  -9.006  1.00  0.00     0.258 C 
ATOM     16  O9  MOL A   1      10.466 -17.142  -7.994  1.00  0.00    -0.271 OA
BRANCH  15  17
ATOM     17 C10  MOL A   1      12.355 -17.924  -9.220  1.00  0.00     0.167 C 
BRANCH  17  18
ATOM     18 O11  MOL A   1      13.066 -17.655  -8.014  1.00  0.00    -0.480 OA
BRANCH  18  19
ATOM     19 C12  MOL A   1      14.212 -16.856  -7.992  1.00  0.00     0.166 A 
ATOM     20 C13  MOL A   1      15.430 -17.309  -8.549  1.00  0.00     0.012 A 
ATOM     21 C21  MOL A   1      16.536 -16.443  -8.576  1.00  0.00    -0.054 A 
ATOM     22 C22  MOL A   1      16.450 -15.169  -8.016  1.00  0.00    -0.058 A 
ATOM     23 C23  MOL A   1      15.263 -14.742  -7.421  1.00  0.00    -0.016 A 
ATOM     24 C24  MOL A   1      14.136 -15.585  -7.401  1.00  0.00     0.161 A 
BRANCH  20  25
ATOM     25 C14  MOL A   1      15.576 -18.704  -9.118  1.00  0.00     0.028 C 
BRANCH  25  26
ATOM     26 N15  MOL A   1      15.962 -19.656  -8.056  1.00  0.00    -0.287 NA
ATOM     27 C16  MOL A   1      16.627 -18.974  -6.933  1.00  0.00     0.064 C 
ATOM     28 C17  MOL A   1      17.949 -19.665  -7.201  1.00  0.00     0.272 C 
ATOM     29 F18  MOL A   1      18.329 -20.544  -6.201  1.00  0.00    -0.204 F 
ATOM     30 F19  MOL A   1      18.957 -18.804  -7.604  1.00  0.00    -0.204 F 
ATOM     31 C20  MOL A   1      17.233 -20.337  -8.356  1.00  0.00     0.064 C 
ENDBRANCH  25  26
ENDBRANCH  20  25
BRANCH  24  32
ATOM     32 O25  MOL A   1      12.924 -15.194  -6.812  1.00  0.00    -0.493 OA
ATOM     33 C26  MOL A   1      12.665 -15.215  -5.412  1.00  0.00     0.078 C 
ENDBRANCH  24  32
ENDBRANCH  18  19
ENDBRANCH  17  18
ENDBRANCH  15  17
ENDBRANCH   8  14
ENDBRANCH   1   8
TORSDOF 10
ENDMDL
MODEL 194
REMARK VINA RESULT:    -7.394      7.429     11.327
REMARK INTER + INTRA:         -12.765
REMARK INTER:                 -10.945
REMARK INTRA:                  -1.820
REMARK UNBOUND:                -1.048
REMARK  10 active torsions:
REMARK  status: ('A' for Active; 'I' for Inactive)
REMARK   1   A    between atoms:  C27_1   and   C6_8  
REMARK   2   A    between atoms:  C6_8    and   C5_9  
REMARK   3   A    between atoms:  C5_9    and   C3_12 
REMARK   4   A    between atoms:  C6_8    and   N7_14 
REMARK   5   A    between atoms:  C8_15   and  C10_17 
REMARK   6   A    between atoms: C10_17   and  O11_18 
REMARK   7   A    between atoms: O11_18   and  C12_19 
REMARK   8   A    between atoms: C13_20   and  C14_25 
REMARK   9   A    between atoms: C14_25   and  N15_26 
REMARK   10  A    between atoms: C24_24   and  O25_32 
ROOT
ATOM      1 C27  MOL A   1      17.604 -17.872  -5.350  1.00  0.00    -0.024 A 
ATOM      2 C28  MOL A   1      18.757 -17.091  -5.152  1.00  0.00    -0.057 A 
ATOM      3 C29  MOL A   1      18.719 -15.973  -4.311  1.00  0.00    -0.061 A 
ATOM      4 C30  MOL A   1      17.532 -15.625  -3.661  1.00  0.00    -0.048 A 
ATOM      5 C31  MOL A   1      16.379 -16.395  -3.846  1.00  0.00     0.018 A 
ATOM      6 Br32 MOL A   1      14.760 -15.931  -2.939  1.00  0.00    -0.051 Br
ATOM      7 C33  MOL A   1      16.412 -17.510  -4.690  1.00  0.00    -0.043 A 
ENDROOT
BRANCH   1   8
ATOM      8  C6  MOL A   1      17.635 -19.036  -6.317  1.00  0.00     0.063 C 
BRANCH   8   9
ATOM      9  C5  MOL A   1      19.069 -19.256  -6.832  1.00  0.00     0.051 C 
BRANCH   9  12
ATOM     10  C1  MOL A   1      18.467 -23.058  -7.424  1.00  0.00     0.006 C 
ATOM     11  N2  MOL A   1      18.256 -21.654  -7.101  1.00  0.00    -0.359 N 
ATOM     12  C3  MOL A   1      19.320 -20.699  -7.161  1.00  0.00     0.222 C 
ATOM     13  O4  MOL A   1      20.481 -21.064  -7.495  1.00  0.00    -0.275 OA
ENDBRANCH   9  12
ENDBRANCH   8   9
BRANCH   8  14
ATOM     14  N7  MOL A   1      16.716 -18.793  -7.434  1.00  0.00    -0.346 N 
ATOM     15  C8  MOL A   1      15.432 -19.413  -7.523  1.00  0.00     0.258 C 
ATOM     16  O9  MOL A   1      15.050 -20.213  -6.627  1.00  0.00    -0.271 OA
BRANCH  15  17
ATOM     17 C10  MOL A   1      14.521 -19.109  -8.674  1.00  0.00     0.167 C 
BRANCH  17  18
ATOM     18 O11  MOL A   1      14.459 -17.703  -8.903  1.00  0.00    -0.480 OA
BRANCH  18  19
ATOM     19 C12  MOL A   1      13.836 -16.832  -8.005  1.00  0.00     0.166 A 
ATOM     20 C13  MOL A   1      12.524 -17.077  -7.539  1.00  0.00     0.012 A 
ATOM     21 C21  MOL A   1      11.968 -16.219  -6.576  1.00  0.00    -0.054 A 
ATOM     22 C22  MOL A   1      12.680 -15.110  -6.119  1.00  0.00    -0.058 A 
ATOM     23 C23  MOL A   1      13.955 -14.842  -6.618  1.00  0.00    -0.016 A 
ATOM     24 C24  MOL A   1      14.542 -15.699  -7.568  1.00  0.00     0.161 A 
BRANCH  20  25
ATOM     25 C14  MOL A   1      11.701 -18.239  -8.050  1.00  0.00     0.028 C 
BRANCH  25  26
ATOM     26 N15  MOL A   1      10.896 -17.825  -9.218  1.00  0.00    -0.287 NA
ATOM     27 C16  MOL A   1       9.527 -18.364  -9.150  1.00  0.00     0.064 C 
ATOM     28 C17  MOL A   1       9.736 -19.248 -10.364  1.00  0.00     0.272 C 
ATOM     29 F18  MOL A   1       8.970 -18.881 -11.456  1.00  0.00    -0.204 F 
ATOM     30 F19  MOL A   1       9.697 -20.603 -10.080  1.00  0.00    -0.204 F 
ATOM     31 C20  MOL A   1      11.141 -18.679 -10.393  1.00  0.00     0.064 C 
ENDBRANCH  25  26
ENDBRANCH  20  25
BRANCH  24  32
ATOM     32 O25  MOL A   1      15.820 -15.464  -8.094  1.00  0.00    -0.493 OA
ATOM     33 C26  MOL A   1      16.891 -14.864  -7.373  1.00  0.00     0.078 C 
ENDBRANCH  24  32
ENDBRANCH  18  19
ENDBRANCH  17  18
ENDBRANCH  15  17
ENDBRANCH   8  14
ENDBRANCH   1   8
TORSDOF 10
ENDMDL
MODEL 195
REMARK VINA RESULT:    -7.393      7.196     12.082
REMARK INTER + INTRA:         -12.763
REMARK INTER:                 -10.329
REMARK INTRA:                  -2.433
REMARK UNBOUND:                -1.048
REMARK  10 active torsions:
REMARK  status: ('A' for Active; 'I' for Inactive)
REMARK   1   A    between atoms:  C27_1   and   C6_8  
REMARK   2   A    between atoms:  C6_8    and   C5_9  
REMARK   3   A    between atoms:  C5_9    and   C3_12 
REMARK   4   A    between atoms:  C6_8    and   N7_14 
REMARK   5   A    between atoms:  C8_15   and  C10_17 
REMARK   6   A    between atoms: C10_17   and  O11_18 
REMARK   7   A    between atoms: O11_18   and  C12_19 
REMARK   8   A    between atoms: C13_20   and  C14_25 
REMARK   9   A    between atoms: C14_25   and  N15_26 
REMARK   10  A    between atoms: C24_24   and  O25_32 
ROOT
ATOM      1 C27  MOL A   1      13.957 -19.110  -7.258  1.00  0.00    -0.024 A 
ATOM      2 C28  MOL A   1      14.540 -20.142  -8.016  1.00  0.00    -0.057 A 
ATOM      3 C29  MOL A   1      15.338 -21.110  -7.396  1.00  0.00    -0.061 A 
ATOM      4 C30  MOL A   1      15.562 -21.057  -6.018  1.00  0.00    -0.048 A 
ATOM      5 C31  MOL A   1      14.986 -20.038  -5.252  1.00  0.00     0.018 A 
ATOM      6 Br32 MOL A   1      15.275 -19.979  -3.362  1.00  0.00    -0.051 Br
ATOM      7 C33  MOL A   1      14.191 -19.065  -5.868  1.00  0.00    -0.043 A 
ENDROOT
BRANCH   1   8
ATOM      8  C6  MOL A   1      13.155 -18.026  -7.945  1.00  0.00     0.063 C 
BRANCH   8   9
ATOM      9  C5  MOL A   1      12.406 -18.612  -9.156  1.00  0.00     0.051 C 
BRANCH   9  12
ATOM     10  C1  MOL A   1       8.713 -18.153 -10.307  1.00  0.00     0.006 C 
ATOM     11  N2  MOL A   1      10.102 -18.585 -10.241  1.00  0.00    -0.359 N 
ATOM     12  C3  MOL A   1      10.981 -18.140  -9.203  1.00  0.00     0.222 C 
ATOM     13  O4  MOL A   1      10.562 -17.348  -8.315  1.00  0.00    -0.275 OA
ENDBRANCH   9  12
ENDBRANCH   8   9
BRANCH   8  14
ATOM     14  N7  MOL A   1      14.036 -16.930  -8.364  1.00  0.00    -0.346 N 
ATOM     15  C8  MOL A   1      14.184 -15.729  -7.604  1.00  0.00     0.258 C 
ATOM     16  O9  MOL A   1      13.538 -15.571  -6.534  1.00  0.00    -0.271 OA
BRANCH  15  17
ATOM     17 C10  MOL A   1      15.118 -14.651  -8.065  1.00  0.00     0.167 C 
BRANCH  17  18
ATOM     18 O11  MOL A   1      16.308 -14.653  -7.280  1.00  0.00    -0.480 OA
BRANCH  18  19
ATOM     19 C12  MOL A   1      16.900 -15.838  -6.834  1.00  0.00     0.166 A 
ATOM     20 C13  MOL A   1      16.979 -16.143  -5.456  1.00  0.00     0.012 A 
ATOM     21 C21  MOL A   1      17.511 -17.380  -5.057  1.00  0.00    -0.054 A 
ATOM     22 C22  MOL A   1      18.000 -18.279  -6.004  1.00  0.00    -0.058 A 
ATOM     23 C23  MOL A   1      17.967 -17.955  -7.361  1.00  0.00    -0.016 A 
ATOM     24 C24  MOL A   1      17.421 -16.730  -7.786  1.00  0.00     0.161 A 
BRANCH  20  25
ATOM     25 C14  MOL A   1      16.508 -15.170  -4.397  1.00  0.00     0.028 C 
BRANCH  25  26
ATOM     26 N15  MOL A   1      15.865 -15.895  -3.281  1.00  0.00    -0.287 NA
ATOM     27 C16  MOL A   1      14.436 -15.556  -3.168  1.00  0.00     0.064 C 
ATOM     28 C17  MOL A   1      14.628 -14.879  -1.825  1.00  0.00     0.272 C 
ATOM     29 F18  MOL A   1      14.012 -15.539  -0.777  1.00  0.00    -0.204 F 
ATOM     30 F19  MOL A   1      14.388 -13.515  -1.849  1.00  0.00    -0.204 F 
ATOM     31 C20  MOL A   1      16.094 -15.234  -1.985  1.00  0.00     0.064 C 
ENDBRANCH  25  26
ENDBRANCH  20  25
BRANCH  24  32
ATOM     32 O25  MOL A   1      17.370 -16.366  -9.139  1.00  0.00    -0.493 OA
ATOM     33 C26  MOL A   1      17.848 -17.174 -10.209  1.00  0.00     0.078 C 
ENDBRANCH  24  32
ENDBRANCH  18  19
ENDBRANCH  17  18
ENDBRANCH  15  17
ENDBRANCH   8  14
ENDBRANCH   1   8
TORSDOF 10
ENDMDL
MODEL 196
REMARK VINA RESULT:    -7.392      6.016     10.927
REMARK INTER + INTRA:         -12.762
REMARK INTER:                 -11.469
REMARK INTRA:                  -1.293
REMARK UNBOUND:                -1.048
REMARK  10 active torsions:
REMARK  status: ('A' for Active; 'I' for Inactive)
REMARK   1   A    between atoms:  C27_1   and   C6_8  
REMARK   2   A    between atoms:  C6_8    and   C5_9  
REMARK   3   A    between atoms:  C5_9    and   C3_12 
REMARK   4   A    between atoms:  C6_8    and   N7_14 
REMARK   5   A    between atoms:  C8_15   and  C10_17 
REMARK   6   A    between atoms: C10_17   and  O11_18 
REMARK   7   A    between atoms: O11_18   and  C12_19 
REMARK   8   A    between atoms: C13_20   and  C14_25 
REMARK   9   A    between atoms: C14_25   and  N15_26 
REMARK   10  A    between atoms: C24_24   and  O25_32 
ROOT
ATOM      1 C27  MOL A   1       7.992 -20.028  -9.759  1.00  0.00    -0.024 A 
ATOM      2 C28  MOL A   1       8.809 -20.974 -10.404  1.00  0.00    -0.057 A 
ATOM      3 C29  MOL A   1       8.270 -22.183 -10.857  1.00  0.00    -0.061 A 
ATOM      4 C30  MOL A   1       6.913 -22.459 -10.672  1.00  0.00    -0.048 A 
ATOM      5 C31  MOL A   1       6.088 -21.524 -10.036  1.00  0.00     0.018 A 
ATOM      6 Br32 MOL A   1       4.225 -21.893  -9.803  1.00  0.00    -0.051 Br
ATOM      7 C33  MOL A   1       6.624 -20.317  -9.577  1.00  0.00    -0.043 A 
ENDROOT
BRANCH   1   8
ATOM      8  C6  MOL A   1       8.597 -18.755  -9.208  1.00  0.00     0.063 C 
BRANCH   8   9
ATOM      9  C5  MOL A   1       7.746 -17.542  -9.625  1.00  0.00     0.051 C 
BRANCH   9  12
ATOM     10  C1  MOL A   1       5.313 -16.249  -6.873  1.00  0.00     0.006 C 
ATOM     11  N2  MOL A   1       5.851 -16.946  -8.032  1.00  0.00    -0.359 N 
ATOM     12  C3  MOL A   1       7.219 -16.802  -8.430  1.00  0.00     0.222 C 
ATOM     13  O4  MOL A   1       7.993 -16.052  -7.775  1.00  0.00    -0.275 OA
ENDBRANCH   9  12
ENDBRANCH   8   9
BRANCH   8  14
ATOM     14  N7  MOL A   1       9.978 -18.604  -9.678  1.00  0.00    -0.346 N 
ATOM     15  C8  MOL A   1      11.053 -18.248  -8.806  1.00  0.00     0.258 C 
ATOM     16  O9  MOL A   1      10.836 -18.041  -7.582  1.00  0.00    -0.271 OA
BRANCH  15  17
ATOM     17 C10  MOL A   1      12.452 -18.132  -9.334  1.00  0.00     0.167 C 
BRANCH  17  18
ATOM     18 O11  MOL A   1      13.384 -18.034  -8.260  1.00  0.00    -0.480 OA
BRANCH  18  19
ATOM     19 C12  MOL A   1      14.742 -17.788  -8.477  1.00  0.00     0.166 A 
ATOM     20 C13  MOL A   1      15.618 -18.823  -8.879  1.00  0.00     0.012 A 
ATOM     21 C21  MOL A   1      16.958 -18.515  -9.163  1.00  0.00    -0.054 A 
ATOM     22 C22  MOL A   1      17.435 -17.214  -9.005  1.00  0.00    -0.058 A 
ATOM     23 C23  MOL A   1      16.581 -16.204  -8.561  1.00  0.00    -0.016 A 
ATOM     24 C24  MOL A   1      15.229 -16.484  -8.289  1.00  0.00     0.161 A 
BRANCH  20  25
ATOM     25 C14  MOL A   1      15.150 -20.256  -9.010  1.00  0.00     0.028 C 
BRANCH  25  26
ATOM     26 N15  MOL A   1      16.021 -21.156  -8.227  1.00  0.00    -0.287 NA
ATOM     27 C16  MOL A   1      15.518 -22.540  -8.236  1.00  0.00     0.064 C 
ATOM     28 C17  MOL A   1      15.220 -22.518  -6.749  1.00  0.00     0.272 C 
ATOM     29 F18  MOL A   1      16.017 -23.374  -6.010  1.00  0.00    -0.204 F 
ATOM     30 F19  MOL A   1      13.870 -22.609  -6.450  1.00  0.00    -0.204 F 
ATOM     31 C20  MOL A   1      15.734 -21.092  -6.784  1.00  0.00     0.064 C 
ENDBRANCH  25  26
ENDBRANCH  20  25
BRANCH  24  32
ATOM     32 O25  MOL A   1      14.339 -15.498  -7.839  1.00  0.00    -0.493 OA
ATOM     33 C26  MOL A   1      14.622 -14.103  -7.827  1.00  0.00     0.078 C 
ENDBRANCH  24  32
ENDBRANCH  18  19
ENDBRANCH  17  18
ENDBRANCH  15  17
ENDBRANCH   8  14
ENDBRANCH   1   8
TORSDOF 10
ENDMDL
MODEL 197
REMARK VINA RESULT:    -7.390      7.211     11.768
REMARK INTER + INTRA:         -12.759
REMARK INTER:                 -11.244
REMARK INTRA:                  -1.515
REMARK UNBOUND:                -1.048
REMARK  10 active torsions:
REMARK  status: ('A' for Active; 'I' for Inactive)
REMARK   1   A    between atoms:  C27_1   and   C6_8  
REMARK   2   A    between atoms:  C6_8    and   C5_9  
REMARK   3   A    between atoms:  C5_9    and   C3_12 
REMARK   4   A    between atoms:  C6_8    and   N7_14 
REMARK   5   A    between atoms:  C8_15   and  C10_17 
REMARK   6   A    between atoms: C10_17   and  O11_18 
REMARK   7   A    between atoms: O11_18   and  C12_19 
REMARK   8   A    between atoms: C13_20   and  C14_25 
REMARK   9   A    between atoms: C14_25   and  N15_26 
REMARK   10  A    between atoms: C24_24   and  O25_32 
ROOT
ATOM      1 C27  MOL A   1      10.846 -17.546  -8.562  1.00  0.00    -0.024 A 
ATOM      2 C28  MOL A   1      10.147 -16.634  -7.749  1.00  0.00    -0.057 A 
ATOM      3 C29  MOL A   1       8.800 -16.352  -7.999  1.00  0.00    -0.061 A 
ATOM      4 C30  MOL A   1       8.138 -16.974  -9.060  1.00  0.00    -0.048 A 
ATOM      5 C31  MOL A   1       8.820 -17.885  -9.875  1.00  0.00     0.018 A 
ATOM      6 Br32 MOL A   1       7.906 -18.753 -11.314  1.00  0.00    -0.051 Br
ATOM      7 C33  MOL A   1      10.168 -18.166  -9.632  1.00  0.00    -0.043 A 
ENDROOT
BRANCH   1   8
ATOM      8  C6  MOL A   1      12.321 -17.791  -8.331  1.00  0.00     0.063 C 
BRANCH   8   9
ATOM      9  C5  MOL A   1      12.630 -19.294  -8.448  1.00  0.00     0.051 C 
BRANCH   9  12
ATOM     10  C1  MOL A   1      13.394 -21.109  -5.087  1.00  0.00     0.006 C 
ATOM     11  N2  MOL A   1      13.555 -20.430  -6.365  1.00  0.00    -0.359 N 
ATOM     12  C3  MOL A   1      12.430 -20.001  -7.139  1.00  0.00     0.222 C 
ATOM     13  O4  MOL A   1      11.259 -20.213  -6.722  1.00  0.00    -0.275 OA
ENDBRANCH   9  12
ENDBRANCH   8   9
BRANCH   8  14
ATOM     14  N7  MOL A   1      12.720 -17.283  -7.014  1.00  0.00    -0.346 N 
ATOM     15  C8  MOL A   1      13.563 -16.140  -6.854  1.00  0.00     0.258 C 
ATOM     16  O9  MOL A   1      14.005 -15.530  -7.863  1.00  0.00    -0.271 OA
BRANCH  15  17
ATOM     17 C10  MOL A   1      13.919 -15.647  -5.483  1.00  0.00     0.167 C 
BRANCH  17  18
ATOM     18 O11  MOL A   1      15.282 -15.941  -5.185  1.00  0.00    -0.480 OA
BRANCH  18  19
ATOM     19 C12  MOL A   1      15.659 -17.110  -4.519  1.00  0.00     0.166 A 
ATOM     20 C13  MOL A   1      15.403 -17.280  -3.139  1.00  0.00     0.012 A 
ATOM     21 C21  MOL A   1      15.728 -18.502  -2.527  1.00  0.00    -0.054 A 
ATOM     22 C22  MOL A   1      16.339 -19.520  -3.259  1.00  0.00    -0.058 A 
ATOM     23 C23  MOL A   1      16.636 -19.332  -4.609  1.00  0.00    -0.016 A 
ATOM     24 C24  MOL A   1      16.302 -18.124  -5.249  1.00  0.00     0.161 A 
BRANCH  20  25
ATOM     25 C14  MOL A   1      14.791 -16.180  -2.301  1.00  0.00     0.028 C 
BRANCH  25  26
ATOM     26 N15  MOL A   1      15.598 -15.947  -1.086  1.00  0.00    -0.287 NA
ATOM     27 C16  MOL A   1      14.826 -15.239  -0.050  1.00  0.00     0.064 C 
ATOM     28 C17  MOL A   1      15.699 -14.004  -0.140  1.00  0.00     0.272 C 
ATOM     29 F18  MOL A   1      16.444 -13.766   1.003  1.00  0.00    -0.204 F 
ATOM     30 F19  MOL A   1      15.037 -12.886  -0.621  1.00  0.00    -0.204 F 
ATOM     31 C20  MOL A   1      16.461 -14.760  -1.211  1.00  0.00     0.064 C 
ENDBRANCH  25  26
ENDBRANCH  20  25
BRANCH  24  32
ATOM     32 O25  MOL A   1      16.584 -17.894  -6.603  1.00  0.00    -0.493 OA
ATOM     33 C26  MOL A   1      16.456 -18.872  -7.629  1.00  0.00     0.078 C 
ENDBRANCH  24  32
ENDBRANCH  18  19
ENDBRANCH  17  18
ENDBRANCH  15  17
ENDBRANCH   8  14
ENDBRANCH   1   8
TORSDOF 10
ENDMDL
MODEL 198
REMARK VINA RESULT:    -7.389      6.263     10.909
REMARK INTER + INTRA:         -12.756
REMARK INTER:                 -11.453
REMARK INTRA:                  -1.303
REMARK UNBOUND:                -1.048
REMARK  10 active torsions:
REMARK  status: ('A' for Active; 'I' for Inactive)
REMARK   1   A    between atoms:  C27_1   and   C6_8  
REMARK   2   A    between atoms:  C6_8    and   C5_9  
REMARK   3   A    between atoms:  C5_9    and   C3_12 
REMARK   4   A    between atoms:  C6_8    and   N7_14 
REMARK   5   A    between atoms:  C8_15   and  C10_17 
REMARK   6   A    between atoms: C10_17   and  O11_18 
REMARK   7   A    between atoms: O11_18   and  C12_19 
REMARK   8   A    between atoms: C13_20   and  C14_25 
REMARK   9   A    between atoms: C14_25   and  N15_26 
REMARK   10  A    between atoms: C24_24   and  O25_32 
ROOT
ATOM      1 C27  MOL A   1       8.345 -17.903  -9.156  1.00  0.00    -0.024 A 
ATOM      2 C28  MOL A   1       8.193 -17.432 -10.473  1.00  0.00    -0.057 A 
ATOM      3 C29  MOL A   1       7.098 -16.631 -10.816  1.00  0.00    -0.061 A 
ATOM      4 C30  MOL A   1       6.146 -16.294  -9.850  1.00  0.00    -0.048 A 
ATOM      5 C31  MOL A   1       6.287 -16.754  -8.535  1.00  0.00     0.018 A 
ATOM      6 Br32 MOL A   1       4.995 -16.274  -7.209  1.00  0.00    -0.051 Br
ATOM      7 C33  MOL A   1       7.378 -17.559  -8.190  1.00  0.00    -0.043 A 
ENDROOT
BRANCH   1   8
ATOM      8  C6  MOL A   1       9.493 -18.828  -8.810  1.00  0.00     0.063 C 
BRANCH   8   9
ATOM      9  C5  MOL A   1       8.951 -20.146  -8.228  1.00  0.00     0.051 C 
BRANCH   9  12
ATOM     10  C1  MOL A   1       6.570 -22.304 -10.430  1.00  0.00     0.006 C 
ATOM     11  N2  MOL A   1       7.077 -21.423  -9.387  1.00  0.00    -0.359 N 
ATOM     12  C3  MOL A   1       8.461 -21.065  -9.309  1.00  0.00     0.222 C 
ATOM     13  O4  MOL A   1       9.280 -21.520 -10.153  1.00  0.00    -0.275 OA
ENDBRANCH   9  12
ENDBRANCH   8   9
BRANCH   8  14
ATOM     14  N7  MOL A   1      10.401 -18.178  -7.859  1.00  0.00    -0.346 N 
ATOM     15  C8  MOL A   1      11.624 -17.560  -8.264  1.00  0.00     0.258 C 
ATOM     16  O9  MOL A   1      11.969 -17.567  -9.475  1.00  0.00    -0.271 OA
BRANCH  15  17
ATOM     17 C10  MOL A   1      12.504 -16.886  -7.253  1.00  0.00     0.167 C 
BRANCH  17  18
ATOM     18 O11  MOL A   1      13.588 -17.737  -6.889  1.00  0.00    -0.480 OA
BRANCH  18  19
ATOM     19 C12  MOL A   1      14.647 -18.003  -7.760  1.00  0.00     0.166 A 
ATOM     20 C13  MOL A   1      14.764 -19.253  -8.410  1.00  0.00     0.012 A 
ATOM     21 C21  MOL A   1      15.800 -19.448  -9.338  1.00  0.00    -0.054 A 
ATOM     22 C22  MOL A   1      16.733 -18.440  -9.581  1.00  0.00    -0.058 A 
ATOM     23 C23  MOL A   1      16.646 -17.226  -8.901  1.00  0.00    -0.016 A 
ATOM     24 C24  MOL A   1      15.605 -16.999  -7.982  1.00  0.00     0.161 A 
BRANCH  20  25
ATOM     25 C14  MOL A   1      13.803 -20.387  -8.133  1.00  0.00     0.028 C 
BRANCH  25  26
ATOM     26 N15  MOL A   1      14.388 -21.332  -7.160  1.00  0.00    -0.287 NA
ATOM     27 C16  MOL A   1      14.655 -22.645  -7.772  1.00  0.00     0.064 C 
ATOM     28 C17  MOL A   1      13.616 -23.339  -6.914  1.00  0.00     0.272 C 
ATOM     29 F18  MOL A   1      14.153 -24.242  -6.013  1.00  0.00    -0.204 F 
ATOM     30 F19  MOL A   1      12.541 -23.835  -7.632  1.00  0.00    -0.204 F 
ATOM     31 C20  MOL A   1      13.361 -21.969  -6.317  1.00  0.00     0.064 C 
ENDBRANCH  25  26
ENDBRANCH  20  25
BRANCH  24  32
ATOM     32 O25  MOL A   1      15.482 -15.793  -7.277  1.00  0.00    -0.493 OA
ATOM     33 C26  MOL A   1      15.221 -14.530  -7.880  1.00  0.00     0.078 C 
ENDBRANCH  24  32
ENDBRANCH  18  19
ENDBRANCH  17  18
ENDBRANCH  15  17
ENDBRANCH   8  14
ENDBRANCH   1   8
TORSDOF 10
ENDMDL
MODEL 199
REMARK VINA RESULT:    -7.384      7.186     11.065
REMARK INTER + INTRA:         -12.750
REMARK INTER:                 -11.089
REMARK INTRA:                  -1.660
REMARK UNBOUND:                -1.048
REMARK  10 active torsions:
REMARK  status: ('A' for Active; 'I' for Inactive)
REMARK   1   A    between atoms:  C27_1   and   C6_8  
REMARK   2   A    between atoms:  C6_8    and   C5_9  
REMARK   3   A    between atoms:  C5_9    and   C3_12 
REMARK   4   A    between atoms:  C6_8    and   N7_14 
REMARK   5   A    between atoms:  C8_15   and  C10_17 
REMARK   6   A    between atoms: C10_17   and  O11_18 
REMARK   7   A    between atoms: O11_18   and  C12_19 
REMARK   8   A    between atoms: C13_20   and  C14_25 
REMARK   9   A    between atoms: C14_25   and  N15_26 
REMARK   10  A    between atoms: C24_24   and  O25_32 
ROOT
ATOM      1 C27  MOL A   1      10.742 -18.375  -9.214  1.00  0.00    -0.024 A 
ATOM      2 C28  MOL A   1      10.565 -18.789 -10.547  1.00  0.00    -0.057 A 
ATOM      3 C29  MOL A   1       9.336 -18.602 -11.189  1.00  0.00    -0.061 A 
ATOM      4 C30  MOL A   1       8.273 -18.003 -10.508  1.00  0.00    -0.048 A 
ATOM      5 C31  MOL A   1       8.436 -17.584  -9.183  1.00  0.00     0.018 A 
ATOM      6 Br32 MOL A   1       6.987 -16.743  -8.259  1.00  0.00    -0.051 Br
ATOM      7 C33  MOL A   1       9.662 -17.773  -8.536  1.00  0.00    -0.043 A 
ENDROOT
BRANCH   1   8
ATOM      8  C6  MOL A   1      12.051 -18.645  -8.504  1.00  0.00     0.063 C 
BRANCH   8   9
ATOM      9  C5  MOL A   1      12.066 -20.084  -7.957  1.00  0.00     0.051 C 
BRANCH   9  12
ATOM     10  C1  MOL A   1      14.891 -20.984  -5.431  1.00  0.00     0.006 C 
ATOM     11  N2  MOL A   1      13.599 -20.621  -5.996  1.00  0.00    -0.359 N 
ATOM     12  C3  MOL A   1      13.414 -20.449  -7.405  1.00  0.00     0.222 C 
ATOM     13  O4  MOL A   1      14.385 -20.605  -8.194  1.00  0.00    -0.275 OA
ENDBRANCH   9  12
ENDBRANCH   8   9
BRANCH   8  14
ATOM     14  N7  MOL A   1      12.249 -17.679  -7.419  1.00  0.00    -0.346 N 
ATOM     15  C8  MOL A   1      13.129 -16.559  -7.538  1.00  0.00     0.258 C 
ATOM     16  O9  MOL A   1      13.781 -16.373  -8.600  1.00  0.00    -0.271 OA
BRANCH  15  17
ATOM     17 C10  MOL A   1      13.275 -15.586  -6.407  1.00  0.00     0.167 C 
BRANCH  17  18
ATOM     18 O11  MOL A   1      14.647 -15.249  -6.212  1.00  0.00    -0.480 OA
BRANCH  18  19
ATOM     19 C12  MOL A   1      15.390 -15.756  -5.143  1.00  0.00     0.166 A 
ATOM     20 C13  MOL A   1      16.222 -16.889  -5.302  1.00  0.00     0.012 A 
ATOM     21 C21  MOL A   1      17.012 -17.316  -4.222  1.00  0.00    -0.054 A 
ATOM     22 C22  MOL A   1      16.942 -16.663  -2.992  1.00  0.00    -0.058 A 
ATOM     23 C23  MOL A   1      16.083 -15.577  -2.822  1.00  0.00    -0.016 A 
ATOM     24 C24  MOL A   1      15.297 -15.118  -3.896  1.00  0.00     0.161 A 
BRANCH  20  25
ATOM     25 C14  MOL A   1      16.284 -17.655  -6.605  1.00  0.00     0.028 C 
BRANCH  25  26
ATOM     26 N15  MOL A   1      17.466 -17.244  -7.389  1.00  0.00    -0.287 NA
ATOM     27 C16  MOL A   1      17.096 -16.353  -8.502  1.00  0.00     0.064 C 
ATOM     28 C17  MOL A   1      17.503 -17.371  -9.549  1.00  0.00     0.272 C 
ATOM     29 F18  MOL A   1      18.598 -16.986 -10.303  1.00  0.00    -0.204 F 
ATOM     30 F19  MOL A   1      16.443 -17.849 -10.302  1.00  0.00    -0.204 F 
ATOM     31 C20  MOL A   1      17.859 -18.264  -8.377  1.00  0.00     0.064 C 
ENDBRANCH  25  26
ENDBRANCH  20  25
BRANCH  24  32
ATOM     32 O25  MOL A   1      14.421 -14.031  -3.766  1.00  0.00    -0.493 OA
ATOM     33 C26  MOL A   1      13.749 -13.676  -2.562  1.00  0.00     0.078 C 
ENDBRANCH  24  32
ENDBRANCH  18  19
ENDBRANCH  17  18
ENDBRANCH  15  17
ENDBRANCH   8  14
ENDBRANCH   1   8
TORSDOF 10
ENDMDL
MODEL 200
REMARK VINA RESULT:    -7.380     10.894     13.189
REMARK INTER + INTRA:         -12.742
REMARK INTER:                 -10.439
REMARK INTRA:                  -2.304
REMARK UNBOUND:                -1.048
REMARK  10 active torsions:
REMARK  status: ('A' for Active; 'I' for Inactive)
REMARK   1   A    between atoms:  C27_1   and   C6_8  
REMARK   2   A    between atoms:  C6_8    and   C5_9  
REMARK   3   A    between atoms:  C5_9    and   C3_12 
REMARK   4   A    between atoms:  C6_8    and   N7_14 
REMARK   5   A    between atoms:  C8_15   and  C10_17 
REMARK   6   A    between atoms: C10_17   and  O11_18 
REMARK   7   A    between atoms: O11_18   and  C12_19 
REMARK   8   A    between atoms: C13_20   and  C14_25 
REMARK   9   A    between atoms: C14_25   and  N15_26 
REMARK   10  A    between atoms: C24_24   and  O25_32 
ROOT
ATOM      1 C27  MOL A   1      16.283 -16.892  -6.548  1.00  0.00    -0.024 A 
ATOM      2 C28  MOL A   1      16.928 -15.913  -7.325  1.00  0.00    -0.057 A 
ATOM      3 C29  MOL A   1      16.215 -14.809  -7.806  1.00  0.00    -0.061 A 
ATOM      4 C30  MOL A   1      14.855 -14.673  -7.517  1.00  0.00    -0.048 A 
ATOM      5 C31  MOL A   1      14.202 -15.638  -6.742  1.00  0.00     0.018 A 
ATOM      6 Br32 MOL A   1      12.345 -15.439  -6.329  1.00  0.00    -0.051 Br
ATOM      7 C33  MOL A   1      14.910 -16.746  -6.264  1.00  0.00    -0.043 A 
ENDROOT
BRANCH   1   8
ATOM      8  C6  MOL A   1      17.043 -18.119  -6.093  1.00  0.00     0.063 C 
BRANCH   8   9
ATOM      9  C5  MOL A   1      17.400 -18.999  -7.306  1.00  0.00     0.051 C 
BRANCH   9  12
ATOM     10  C1  MOL A   1      14.488 -21.491  -8.003  1.00  0.00     0.006 C 
ATOM     11  N2  MOL A   1      15.297 -20.282  -7.955  1.00  0.00    -0.359 N 
ATOM     12  C3  MOL A   1      16.585 -20.260  -7.330  1.00  0.00     0.222 C 
ATOM     13  O4  MOL A   1      17.046 -21.305  -6.795  1.00  0.00    -0.275 OA
ENDBRANCH   9  12
ENDBRANCH   8   9
BRANCH   8  14
ATOM     14  N7  MOL A   1      16.249 -18.878  -5.121  1.00  0.00    -0.346 N 
ATOM     15  C8  MOL A   1      16.432 -18.747  -3.710  1.00  0.00     0.258 C 
ATOM     16  O9  MOL A   1      17.307 -17.965  -3.252  1.00  0.00    -0.271 OA
BRANCH  15  17
ATOM     17 C10  MOL A   1      15.574 -19.527  -2.759  1.00  0.00     0.167 C 
BRANCH  17  18
ATOM     18 O11  MOL A   1      15.935 -19.238  -1.410  1.00  0.00    -0.480 OA
BRANCH  18  19
ATOM     19 C12  MOL A   1      14.981 -18.931  -0.436  1.00  0.00     0.166 A 
ATOM     20 C13  MOL A   1      14.685 -17.590  -0.101  1.00  0.00     0.012 A 
ATOM     21 C21  MOL A   1      13.662 -17.325   0.826  1.00  0.00    -0.054 A 
ATOM     22 C22  MOL A   1      12.979 -18.372   1.445  1.00  0.00    -0.058 A 
ATOM     23 C23  MOL A   1      13.308 -19.695   1.149  1.00  0.00    -0.016 A 
ATOM     24 C24  MOL A   1      14.314 -19.985   0.209  1.00  0.00     0.161 A 
BRANCH  20  25
ATOM     25 C14  MOL A   1      15.440 -16.430  -0.711  1.00  0.00     0.028 C 
BRANCH  25  26
ATOM     26 N15  MOL A   1      14.507 -15.502  -1.381  1.00  0.00    -0.287 NA
ATOM     27 C16  MOL A   1      14.363 -15.818  -2.813  1.00  0.00     0.064 C 
ATOM     28 C17  MOL A   1      15.015 -14.519  -3.240  1.00  0.00     0.272 C 
ATOM     29 F18  MOL A   1      14.153 -13.651  -3.888  1.00  0.00    -0.204 F 
ATOM     30 F19  MOL A   1      16.229 -14.690  -3.886  1.00  0.00    -0.204 F 
ATOM     31 C20  MOL A   1      15.157 -14.235  -1.758  1.00  0.00     0.064 C 
ENDBRANCH  25  26
ENDBRANCH  20  25
BRANCH  24  32
ATOM     32 O25  MOL A   1      14.675 -21.301  -0.115  1.00  0.00    -0.493 OA
ATOM     33 C26  MOL A   1      15.468 -22.146   0.712  1.00  0.00     0.078 C 
ENDBRANCH  24  32
ENDBRANCH  18  19
ENDBRANCH  17  18
ENDBRANCH  15  17
ENDBRANCH   8  14
ENDBRANCH   1   8
TORSDOF 10
ENDMDL
MODEL 201
REMARK VINA RESULT:    -7.379      9.700     13.712
REMARK INTER + INTRA:         -12.741
REMARK INTER:                 -10.769
REMARK INTRA:                  -1.971
REMARK UNBOUND:                -1.048
REMARK  10 active torsions:
REMARK  status: ('A' for Active; 'I' for Inactive)
REMARK   1   A    between atoms:  C27_1   and   C6_8  
REMARK   2   A    between atoms:  C6_8    and   C5_9  
REMARK   3   A    between atoms:  C5_9    and   C3_12 
REMARK   4   A    between atoms:  C6_8    and   N7_14 
REMARK   5   A    between atoms:  C8_15   and  C10_17 
REMARK   6   A    between atoms: C10_17   and  O11_18 
REMARK   7   A    between atoms: O11_18   and  C12_19 
REMARK   8   A    between atoms: C13_20   and  C14_25 
REMARK   9   A    between atoms: C14_25   and  N15_26 
REMARK   10  A    between atoms: C24_24   and  O25_32 
ROOT
ATOM      1 C27  MOL A   1      15.131 -18.015  -0.671  1.00  0.00    -0.024 A 
ATOM      2 C28  MOL A   1      15.126 -18.851  -1.803  1.00  0.00    -0.057 A 
ATOM      3 C29  MOL A   1      15.419 -20.214  -1.677  1.00  0.00    -0.061 A 
ATOM      4 C30  MOL A   1      15.720 -20.754  -0.423  1.00  0.00    -0.048 A 
ATOM      5 C31  MOL A   1      15.725 -19.933   0.711  1.00  0.00     0.018 A 
ATOM      6 Br32 MOL A   1      16.115 -20.678   2.429  1.00  0.00    -0.051 Br
ATOM      7 C33  MOL A   1      15.438 -18.570   0.588  1.00  0.00    -0.043 A 
ENDROOT
BRANCH   1   8
ATOM      8  C6  MOL A   1      14.885 -16.530  -0.827  1.00  0.00     0.063 C 
BRANCH   8   9
ATOM      9  C5  MOL A   1      14.056 -16.006   0.360  1.00  0.00     0.051 C 
BRANCH   9  12
ATOM     10  C1  MOL A   1      16.892 -13.751   1.790  1.00  0.00     0.006 C 
ATOM     11  N2  MOL A   1      16.053 -14.513   0.875  1.00  0.00    -0.359 N 
ATOM     12  C3  MOL A   1      14.906 -15.239   1.330  1.00  0.00     0.222 C 
ATOM     13  O4  MOL A   1      14.600 -15.236   2.554  1.00  0.00    -0.275 OA
ENDBRANCH   9  12
ENDBRANCH   8   9
BRANCH   8  14
ATOM     14  N7  MOL A   1      14.201 -16.258  -2.095  1.00  0.00    -0.346 N 
ATOM     15  C8  MOL A   1      14.376 -15.037  -2.817  1.00  0.00     0.258 C 
ATOM     16  O9  MOL A   1      15.133 -14.137  -2.368  1.00  0.00    -0.271 OA
BRANCH  15  17
ATOM     17 C10  MOL A   1      13.672 -14.821  -4.124  1.00  0.00     0.167 C 
BRANCH  17  18
ATOM     18 O11  MOL A   1      14.515 -15.192  -5.212  1.00  0.00    -0.480 OA
BRANCH  18  19
ATOM     19 C12  MOL A   1      14.539 -16.494  -5.721  1.00  0.00     0.166 A 
ATOM     20 C13  MOL A   1      15.591 -17.383  -5.404  1.00  0.00     0.012 A 
ATOM     21 C21  MOL A   1      15.534 -18.706  -5.873  1.00  0.00    -0.054 A 
ATOM     22 C22  MOL A   1      14.478 -19.126  -6.682  1.00  0.00    -0.058 A 
ATOM     23 C23  MOL A   1      13.467 -18.233  -7.034  1.00  0.00    -0.016 A 
ATOM     24 C24  MOL A   1      13.492 -16.908  -6.560  1.00  0.00     0.161 A 
BRANCH  20  25
ATOM     25 C14  MOL A   1      16.779 -16.949  -4.574  1.00  0.00     0.028 C 
BRANCH  25  26
ATOM     26 N15  MOL A   1      17.799 -16.309  -5.430  1.00  0.00    -0.287 NA
ATOM     27 C16  MOL A   1      19.161 -16.557  -4.927  1.00  0.00     0.064 C 
ATOM     28 C17  MOL A   1      19.385 -15.095  -4.598  1.00  0.00     0.272 C 
ATOM     29 F18  MOL A   1      20.355 -14.491  -5.381  1.00  0.00    -0.204 F 
ATOM     30 F19  MOL A   1      19.521 -14.842  -3.243  1.00  0.00    -0.204 F 
ATOM     31 C20  MOL A   1      17.975 -14.881  -5.112  1.00  0.00     0.064 C 
ENDBRANCH  25  26
ENDBRANCH  20  25
BRANCH  24  32
ATOM     32 O25  MOL A   1      12.495 -15.979  -6.892  1.00  0.00    -0.493 OA
ATOM     33 C26  MOL A   1      11.098 -16.247  -6.853  1.00  0.00     0.078 C 
ENDBRANCH  24  32
ENDBRANCH  18  19
ENDBRANCH  17  18
ENDBRANCH  15  17
ENDBRANCH   8  14
ENDBRANCH   1   8
TORSDOF 10
ENDMDL
MODEL 202
REMARK VINA RESULT:    -7.378      4.599      7.845
REMARK INTER + INTRA:         -12.740
REMARK INTER:                 -11.703
REMARK INTRA:                  -1.037
REMARK UNBOUND:                -1.048
REMARK  10 active torsions:
REMARK  status: ('A' for Active; 'I' for Inactive)
REMARK   1   A    between atoms:  C27_1   and   C6_8  
REMARK   2   A    between atoms:  C6_8    and   C5_9  
REMARK   3   A    between atoms:  C5_9    and   C3_12 
REMARK   4   A    between atoms:  C6_8    and   N7_14 
REMARK   5   A    between atoms:  C8_15   and  C10_17 
REMARK   6   A    between atoms: C10_17   and  O11_18 
REMARK   7   A    between atoms: O11_18   and  C12_19 
REMARK   8   A    between atoms: C13_20   and  C14_25 
REMARK   9   A    between atoms: C14_25   and  N15_26 
REMARK   10  A    between atoms: C24_24   and  O25_32 
ROOT
ATOM      1 C27  MOL A   1       4.311 -14.674 -10.039  1.00  0.00    -0.024 A 
ATOM      2 C28  MOL A   1       3.059 -14.689  -9.398  1.00  0.00    -0.057 A 
ATOM      3 C29  MOL A   1       2.028 -13.854  -9.842  1.00  0.00    -0.061 A 
ATOM      4 C30  MOL A   1       2.235 -12.998 -10.927  1.00  0.00    -0.048 A 
ATOM      5 C31  MOL A   1       3.475 -12.977 -11.576  1.00  0.00     0.018 A 
ATOM      6 Br32 MOL A   1       3.752 -11.821 -13.075  1.00  0.00    -0.051 Br
ATOM      7 C33  MOL A   1       4.510 -13.806 -11.132  1.00  0.00    -0.043 A 
ENDROOT
BRANCH   1   8
ATOM      8  C6  MOL A   1       5.444 -15.527  -9.508  1.00  0.00     0.063 C 
BRANCH   8   9
ATOM      9  C5  MOL A   1       6.481 -15.776 -10.618  1.00  0.00     0.051 C 
BRANCH   9  12
ATOM     10  C1  MOL A   1       9.428 -16.853  -8.309  1.00  0.00     0.006 C 
ATOM     11  N2  MOL A   1       8.273 -16.148  -8.846  1.00  0.00    -0.359 N 
ATOM     12  C3  MOL A   1       7.678 -16.516 -10.095  1.00  0.00     0.222 C 
ATOM     13  O4  MOL A   1       8.157 -17.471 -10.766  1.00  0.00    -0.275 OA
ENDBRANCH   9  12
ENDBRANCH   8   9
BRANCH   8  14
ATOM     14  N7  MOL A   1       4.924 -16.798  -8.992  1.00  0.00    -0.346 N 
ATOM     15  C8  MOL A   1       5.002 -17.156  -7.610  1.00  0.00     0.258 C 
ATOM     16  O9  MOL A   1       5.541 -16.376  -6.781  1.00  0.00    -0.271 OA
BRANCH  15  17
ATOM     17 C10  MOL A   1       4.431 -18.457  -7.131  1.00  0.00     0.167 C 
BRANCH  17  18
ATOM     18 O11  MOL A   1       5.377 -19.510  -7.304  1.00  0.00    -0.480 OA
BRANCH  18  19
ATOM     19 C12  MOL A   1       5.301 -20.406  -8.373  1.00  0.00     0.166 A 
ATOM     20 C13  MOL A   1       4.124 -21.147  -8.625  1.00  0.00     0.012 A 
ATOM     21 C21  MOL A   1       4.065 -21.977  -9.757  1.00  0.00    -0.054 A 
ATOM     22 C22  MOL A   1       5.171 -22.107 -10.597  1.00  0.00    -0.058 A 
ATOM     23 C23  MOL A   1       6.349 -21.414 -10.319  1.00  0.00    -0.016 A 
ATOM     24 C24  MOL A   1       6.425 -20.562  -9.202  1.00  0.00     0.161 A 
BRANCH  20  25
ATOM     25 C14  MOL A   1       2.924 -21.072  -7.707  1.00  0.00     0.028 C 
BRANCH  25  26
ATOM     26 N15  MOL A   1       1.701 -20.771  -8.480  1.00  0.00    -0.287 NA
ATOM     27 C16  MOL A   1       0.610 -20.304  -7.608  1.00  0.00     0.064 C 
ATOM     28 C17  MOL A   1      -0.237 -21.530  -7.888  1.00  0.00     0.272 C 
ATOM     29 F18  MOL A   1      -1.395 -21.255  -8.594  1.00  0.00    -0.204 F 
ATOM     30 F19  MOL A   1      -0.433 -22.337  -6.779  1.00  0.00    -0.204 F 
ATOM     31 C20  MOL A   1       0.913 -21.982  -8.766  1.00  0.00     0.064 C 
ENDBRANCH  25  26
ENDBRANCH  20  25
BRANCH  24  32
ATOM     32 O25  MOL A   1       7.590 -19.848  -8.886  1.00  0.00    -0.493 OA
ATOM     33 C26  MOL A   1       8.707 -20.395  -8.193  1.00  0.00     0.078 C 
ENDBRANCH  24  32
ENDBRANCH  18  19
ENDBRANCH  17  18
ENDBRANCH  15  17
ENDBRANCH   8  14
ENDBRANCH   1   8
TORSDOF 10
ENDMDL
MODEL 203
REMARK VINA RESULT:    -7.377      1.520      1.698
REMARK INTER + INTRA:         -12.739
REMARK INTER:                 -13.524
REMARK INTRA:                   0.785
REMARK UNBOUND:                -1.048
REMARK  10 active torsions:
REMARK  status: ('A' for Active; 'I' for Inactive)
REMARK   1   A    between atoms:  C27_1   and   C6_8  
REMARK   2   A    between atoms:  C6_8    and   C5_9  
REMARK   3   A    between atoms:  C5_9    and   C3_12 
REMARK   4   A    between atoms:  C6_8    and   N7_14 
REMARK   5   A    between atoms:  C8_15   and  C10_17 
REMARK   6   A    between atoms: C10_17   and  O11_18 
REMARK   7   A    between atoms: O11_18   and  C12_19 
REMARK   8   A    between atoms: C13_20   and  C14_25 
REMARK   9   A    between atoms: C14_25   and  N15_26 
REMARK   10  A    between atoms: C24_24   and  O25_32 
ROOT
ATOM      1 C27  MOL A   1       7.785 -20.038 -10.479  1.00  0.00    -0.024 A 
ATOM      2 C28  MOL A   1       6.417 -20.199 -10.192  1.00  0.00    -0.057 A 
ATOM      3 C29  MOL A   1       5.915 -21.452  -9.824  1.00  0.00    -0.061 A 
ATOM      4 C30  MOL A   1       6.771 -22.554  -9.740  1.00  0.00    -0.048 A 
ATOM      5 C31  MOL A   1       8.134 -22.406 -10.020  1.00  0.00     0.018 A 
ATOM      6 Br32 MOL A   1       9.309 -23.910  -9.883  1.00  0.00    -0.051 Br
ATOM      7 C33  MOL A   1       8.639 -21.156 -10.393  1.00  0.00    -0.043 A 
ENDROOT
BRANCH   1   8
ATOM      8  C6  MOL A   1       8.307 -18.696 -10.946  1.00  0.00     0.063 C 
BRANCH   8   9
ATOM      9  C5  MOL A   1       9.836 -18.638 -10.779  1.00  0.00     0.051 C 
BRANCH   9  12
ATOM     10  C1  MOL A   1      11.162 -19.231  -7.165  1.00  0.00     0.006 C 
ATOM     11  N2  MOL A   1      10.767 -19.444  -8.549  1.00  0.00    -0.359 N 
ATOM     12  C3  MOL A   1      10.224 -18.389  -9.350  1.00  0.00     0.222 C 
ATOM     13  O4  MOL A   1      10.072 -17.237  -8.859  1.00  0.00    -0.275 OA
ENDBRANCH   9  12
ENDBRANCH   8   9
BRANCH   8  14
ATOM     14  N7  MOL A   1       7.664 -17.611 -10.197  1.00  0.00    -0.346 N 
ATOM     15  C8  MOL A   1       6.900 -16.585 -10.833  1.00  0.00     0.258 C 
ATOM     16  O9  MOL A   1       6.764 -16.578 -12.085  1.00  0.00    -0.271 OA
BRANCH  15  17
ATOM     17 C10  MOL A   1       6.241 -15.513 -10.016  1.00  0.00     0.167 C 
BRANCH  17  18
ATOM     18 O11  MOL A   1       5.100 -14.998 -10.697  1.00  0.00    -0.480 OA
BRANCH  18  19
ATOM     19 C12  MOL A   1       3.893 -14.749 -10.037  1.00  0.00     0.166 A 
ATOM     20 C13  MOL A   1       2.847 -14.039 -10.669  1.00  0.00     0.012 A 
ATOM     21 C21  MOL A   1       1.623 -13.880  -9.998  1.00  0.00    -0.054 A 
ATOM     22 C22  MOL A   1       1.456 -14.373  -8.704  1.00  0.00    -0.058 A 
ATOM     23 C23  MOL A   1       2.506 -15.030  -8.063  1.00  0.00    -0.016 A 
ATOM     24 C24  MOL A   1       3.735 -15.219  -8.723  1.00  0.00     0.161 A 
BRANCH  20  25
ATOM     25 C14  MOL A   1       3.010 -13.443 -12.050  1.00  0.00     0.028 C 
BRANCH  25  26
ATOM     26 N15  MOL A   1       3.766 -12.176 -11.980  1.00  0.00    -0.287 NA
ATOM     27 C16  MOL A   1       3.107 -11.201 -11.094  1.00  0.00     0.064 C 
ATOM     28 C17  MOL A   1       2.801 -10.257 -12.240  1.00  0.00     0.272 C 
ATOM     29 F18  MOL A   1       3.489  -9.058 -12.171  1.00  0.00    -0.204 F 
ATOM     30 F19  MOL A   1       1.447 -10.113 -12.498  1.00  0.00    -0.204 F 
ATOM     31 C20  MOL A   1       3.475 -11.291 -13.121  1.00  0.00     0.064 C 
ENDBRANCH  25  26
ENDBRANCH  20  25
BRANCH  24  32
ATOM     32 O25  MOL A   1       4.816 -15.872  -8.113  1.00  0.00    -0.493 OA
ATOM     33 C26  MOL A   1       5.076 -15.864  -6.713  1.00  0.00     0.078 C 
ENDBRANCH  24  32
ENDBRANCH  18  19
ENDBRANCH  17  18
ENDBRANCH  15  17
ENDBRANCH   8  14
ENDBRANCH   1   8
TORSDOF 10
ENDMDL
MODEL 204
REMARK VINA RESULT:    -7.373      5.299      9.921
REMARK INTER + INTRA:         -12.732
REMARK INTER:                 -11.932
REMARK INTRA:                  -0.800
REMARK UNBOUND:                -1.048
REMARK  10 active torsions:
REMARK  status: ('A' for Active; 'I' for Inactive)
REMARK   1   A    between atoms:  C27_1   and   C6_8  
REMARK   2   A    between atoms:  C6_8    and   C5_9  
REMARK   3   A    between atoms:  C5_9    and   C3_12 
REMARK   4   A    between atoms:  C6_8    and   N7_14 
REMARK   5   A    between atoms:  C8_15   and  C10_17 
REMARK   6   A    between atoms: C10_17   and  O11_18 
REMARK   7   A    between atoms: O11_18   and  C12_19 
REMARK   8   A    between atoms: C13_20   and  C14_25 
REMARK   9   A    between atoms: C14_25   and  N15_26 
REMARK   10  A    between atoms: C24_24   and  O25_32 
ROOT
ATOM      1 C27  MOL A   1       7.988 -19.841  -9.990  1.00  0.00    -0.024 A 
ATOM      2 C28  MOL A   1       8.886 -20.786 -10.518  1.00  0.00    -0.057 A 
ATOM      3 C29  MOL A   1       8.444 -22.070 -10.856  1.00  0.00    -0.061 A 
ATOM      4 C30  MOL A   1       7.104 -22.422 -10.671  1.00  0.00    -0.048 A 
ATOM      5 C31  MOL A   1       6.200 -21.489 -10.150  1.00  0.00     0.018 A 
ATOM      6 Br32 MOL A   1       4.362 -21.965  -9.918  1.00  0.00    -0.051 Br
ATOM      7 C33  MOL A   1       6.639 -20.207  -9.806  1.00  0.00    -0.043 A 
ENDROOT
BRANCH   1   8
ATOM      8  C6  MOL A   1       8.489 -18.479  -9.559  1.00  0.00     0.063 C 
BRANCH   8   9
ATOM      9  C5  MOL A   1       7.738 -17.374 -10.324  1.00  0.00     0.051 C 
BRANCH   9  12
ATOM     10  C1  MOL A   1       5.600 -16.419  -7.212  1.00  0.00     0.006 C 
ATOM     11  N2  MOL A   1       6.593 -17.044  -8.073  1.00  0.00    -0.359 N 
ATOM     12  C3  MOL A   1       6.695 -16.720  -9.464  1.00  0.00     0.222 C 
ATOM     13  O4  MOL A   1       5.909 -15.878  -9.977  1.00  0.00    -0.275 OA
ENDBRANCH   9  12
ENDBRANCH   8   9
BRANCH   8  14
ATOM     14  N7  MOL A   1       9.934 -18.374  -9.787  1.00  0.00    -0.346 N 
ATOM     15  C8  MOL A   1      10.843 -17.939  -8.773  1.00  0.00     0.258 C 
ATOM     16  O9  MOL A   1      10.416 -17.617  -7.633  1.00  0.00    -0.271 OA
BRANCH  15  17
ATOM     17 C10  MOL A   1      12.315 -17.874  -9.051  1.00  0.00     0.167 C 
BRANCH  17  18
ATOM     18 O11  MOL A   1      12.902 -19.168  -8.933  1.00  0.00    -0.480 OA
BRANCH  18  19
ATOM     19 C12  MOL A   1      13.421 -19.639  -7.724  1.00  0.00     0.166 A 
ATOM     20 C13  MOL A   1      14.269 -18.834  -6.929  1.00  0.00     0.012 A 
ATOM     21 C21  MOL A   1      14.703 -19.317  -5.684  1.00  0.00    -0.054 A 
ATOM     22 C22  MOL A   1      14.344 -20.595  -5.256  1.00  0.00    -0.058 A 
ATOM     23 C23  MOL A   1      13.548 -21.407  -6.064  1.00  0.00    -0.016 A 
ATOM     24 C24  MOL A   1      13.084 -20.937  -7.307  1.00  0.00     0.161 A 
BRANCH  20  25
ATOM     25 C14  MOL A   1      14.723 -17.464  -7.384  1.00  0.00     0.028 C 
BRANCH  25  26
ATOM     26 N15  MOL A   1      15.913 -17.036  -6.620  1.00  0.00    -0.287 NA
ATOM     27 C16  MOL A   1      15.776 -15.652  -6.135  1.00  0.00     0.064 C 
ATOM     28 C17  MOL A   1      16.904 -15.154  -7.016  1.00  0.00     0.272 C 
ATOM     29 F18  MOL A   1      18.016 -14.730  -6.309  1.00  0.00    -0.204 F 
ATOM     30 F19  MOL A   1      16.495 -14.269  -8.000  1.00  0.00    -0.204 F 
ATOM     31 C20  MOL A   1      17.006 -16.587  -7.500  1.00  0.00     0.064 C 
ENDBRANCH  25  26
ENDBRANCH  20  25
BRANCH  24  32
ATOM     32 O25  MOL A   1      12.284 -21.722  -8.149  1.00  0.00    -0.493 OA
ATOM     33 C26  MOL A   1      11.988 -23.097  -7.928  1.00  0.00     0.078 C 
ENDBRANCH  24  32
ENDBRANCH  18  19
ENDBRANCH  17  18
ENDBRANCH  15  17
ENDBRANCH   8  14
ENDBRANCH   1   8
TORSDOF 10
ENDMDL
MODEL 205
REMARK VINA RESULT:    -7.372      7.485     12.184
REMARK INTER + INTRA:         -12.730
REMARK INTER:                 -11.293
REMARK INTRA:                  -1.437
REMARK UNBOUND:                -1.048
REMARK  10 active torsions:
REMARK  status: ('A' for Active; 'I' for Inactive)
REMARK   1   A    between atoms:  C27_1   and   C6_8  
REMARK   2   A    between atoms:  C6_8    and   C5_9  
REMARK   3   A    between atoms:  C5_9    and   C3_12 
REMARK   4   A    between atoms:  C6_8    and   N7_14 
REMARK   5   A    between atoms:  C8_15   and  C10_17 
REMARK   6   A    between atoms: C10_17   and  O11_18 
REMARK   7   A    between atoms: O11_18   and  C12_19 
REMARK   8   A    between atoms: C13_20   and  C14_25 
REMARK   9   A    between atoms: C14_25   and  N15_26 
REMARK   10  A    between atoms: C24_24   and  O25_32 
ROOT
ATOM      1 C27  MOL A   1      10.271 -17.918  -8.553  1.00  0.00    -0.024 A 
ATOM      2 C28  MOL A   1       9.761 -16.796  -7.875  1.00  0.00    -0.057 A 
ATOM      3 C29  MOL A   1       8.606 -16.155  -8.337  1.00  0.00    -0.061 A 
ATOM      4 C30  MOL A   1       7.950 -16.627  -9.477  1.00  0.00    -0.048 A 
ATOM      5 C31  MOL A   1       8.446 -17.744 -10.159  1.00  0.00     0.018 A 
ATOM      6 Br32 MOL A   1       7.535 -18.403 -11.707  1.00  0.00    -0.051 Br
ATOM      7 C33  MOL A   1       9.603 -18.384  -9.704  1.00  0.00    -0.043 A 
ENDROOT
BRANCH   1   8
ATOM      8  C6  MOL A   1      11.561 -18.560  -8.090  1.00  0.00     0.063 C 
BRANCH   8   9
ATOM      9  C5  MOL A   1      11.262 -19.894  -7.384  1.00  0.00     0.051 C 
BRANCH   9  12
ATOM     10  C1  MOL A   1      12.941 -23.343  -8.061  1.00  0.00     0.006 C 
ATOM     11  N2  MOL A   1      11.957 -22.317  -7.749  1.00  0.00    -0.359 N 
ATOM     12  C3  MOL A   1      12.303 -20.929  -7.698  1.00  0.00     0.222 C 
ATOM     13  O4  MOL A   1      13.490 -20.565  -7.921  1.00  0.00    -0.275 OA
ENDBRANCH   9  12
ENDBRANCH   8   9
BRANCH   8  14
ATOM     14  N7  MOL A   1      12.288 -17.653  -7.195  1.00  0.00    -0.346 N 
ATOM     15  C8  MOL A   1      13.526 -17.041  -7.560  1.00  0.00     0.258 C 
ATOM     16  O9  MOL A   1      14.045 -17.277  -8.683  1.00  0.00    -0.271 OA
BRANCH  15  17
ATOM     17 C10  MOL A   1      14.214 -16.101  -6.616  1.00  0.00     0.167 C 
BRANCH  17  18
ATOM     18 O11  MOL A   1      14.705 -16.806  -5.478  1.00  0.00    -0.480 OA
BRANCH  18  19
ATOM     19 C12  MOL A   1      15.898 -16.450  -4.843  1.00  0.00     0.166 A 
ATOM     20 C13  MOL A   1      17.140 -16.964  -5.280  1.00  0.00     0.012 A 
ATOM     21 C21  MOL A   1      18.321 -16.518  -4.663  1.00  0.00    -0.054 A 
ATOM     22 C22  MOL A   1      18.268 -15.616  -3.600  1.00  0.00    -0.058 A 
ATOM     23 C23  MOL A   1      17.037 -15.150  -3.137  1.00  0.00    -0.016 A 
ATOM     24 C24  MOL A   1      15.842 -15.567  -3.753  1.00  0.00     0.161 A 
BRANCH  20  25
ATOM     25 C14  MOL A   1      17.234 -17.983  -6.394  1.00  0.00     0.028 C 
BRANCH  25  26
ATOM     26 N15  MOL A   1      18.026 -19.151  -5.959  1.00  0.00    -0.287 NA
ATOM     27 C16  MOL A   1      19.114 -19.451  -6.905  1.00  0.00     0.064 C 
ATOM     28 C17  MOL A   1      18.497 -20.775  -7.309  1.00  0.00     0.272 C 
ATOM     29 F18  MOL A   1      19.243 -21.876  -6.924  1.00  0.00    -0.204 F 
ATOM     30 F19  MOL A   1      18.077 -20.816  -8.628  1.00  0.00    -0.204 F 
ATOM     31 C20  MOL A   1      17.389 -20.425  -6.335  1.00  0.00     0.064 C 
ENDBRANCH  25  26
ENDBRANCH  20  25
BRANCH  24  32
ATOM     32 O25  MOL A   1      14.585 -15.122  -3.317  1.00  0.00    -0.493 OA
ATOM     33 C26  MOL A   1      14.133 -13.775  -3.405  1.00  0.00     0.078 C 
ENDBRANCH  24  32
ENDBRANCH  18  19
ENDBRANCH  17  18
ENDBRANCH  15  17
ENDBRANCH   8  14
ENDBRANCH   1   8
TORSDOF 10
ENDMDL
MODEL 206
REMARK VINA RESULT:    -7.370      3.986      8.261
REMARK INTER + INTRA:         -12.727
REMARK INTER:                 -12.532
REMARK INTRA:                  -0.195
REMARK UNBOUND:                -1.048
REMARK  10 active torsions:
REMARK  status: ('A' for Active; 'I' for Inactive)
REMARK   1   A    between atoms:  C27_1   and   C6_8  
REMARK   2   A    between atoms:  C6_8    and   C5_9  
REMARK   3   A    between atoms:  C5_9    and   C3_12 
REMARK   4   A    between atoms:  C6_8    and   N7_14 
REMARK   5   A    between atoms:  C8_15   and  C10_17 
REMARK   6   A    between atoms: C10_17   and  O11_18 
REMARK   7   A    between atoms: O11_18   and  C12_19 
REMARK   8   A    between atoms: C13_20   and  C14_25 
REMARK   9   A    between atoms: C14_25   and  N15_26 
REMARK   10  A    between atoms: C24_24   and  O25_32 
ROOT
ATOM      1 C27  MOL A   1       5.454 -15.960  -8.475  1.00  0.00    -0.024 A 
ATOM      2 C28  MOL A   1       5.554 -16.344  -7.125  1.00  0.00    -0.057 A 
ATOM      3 C29  MOL A   1       4.473 -16.161  -6.256  1.00  0.00    -0.061 A 
ATOM      4 C30  MOL A   1       3.285 -15.594  -6.724  1.00  0.00    -0.048 A 
ATOM      5 C31  MOL A   1       3.171 -15.212  -8.065  1.00  0.00     0.018 A 
ATOM      6 Br32 MOL A   1       1.536 -14.456  -8.710  1.00  0.00    -0.051 Br
ATOM      7 C33  MOL A   1       4.251 -15.388  -8.936  1.00  0.00    -0.043 A 
ENDROOT
BRANCH   1   8
ATOM      8  C6  MOL A   1       6.651 -16.094  -9.391  1.00  0.00     0.063 C 
BRANCH   8   9
ATOM      9  C5  MOL A   1       6.251 -16.841 -10.676  1.00  0.00     0.051 C 
BRANCH   9  12
ATOM     10  C1  MOL A   1       5.417 -13.625 -12.711  1.00  0.00     0.006 C 
ATOM     11  N2  MOL A   1       5.589 -14.567 -11.614  1.00  0.00    -0.359 N 
ATOM     12  C3  MOL A   1       6.075 -15.896 -11.830  1.00  0.00     0.222 C 
ATOM     13  O4  MOL A   1       6.364 -16.282 -12.996  1.00  0.00    -0.275 OA
ENDBRANCH   9  12
ENDBRANCH   8   9
BRANCH   8  14
ATOM     14  N7  MOL A   1       7.741 -16.796  -8.704  1.00  0.00    -0.346 N 
ATOM     15  C8  MOL A   1       8.611 -17.709  -9.376  1.00  0.00     0.258 C 
ATOM     16  O9  MOL A   1       8.456 -17.949 -10.603  1.00  0.00    -0.271 OA
BRANCH  15  17
ATOM     17 C10  MOL A   1       9.727 -18.380  -8.631  1.00  0.00     0.167 C 
BRANCH  17  18
ATOM     18 O11  MOL A   1       9.238 -19.510  -7.913  1.00  0.00    -0.480 OA
BRANCH  18  19
ATOM     19 C12  MOL A   1       9.092 -20.764  -8.514  1.00  0.00     0.166 A 
ATOM     20 C13  MOL A   1       7.814 -21.280  -8.826  1.00  0.00     0.012 A 
ATOM     21 C21  MOL A   1       7.717 -22.509  -9.501  1.00  0.00    -0.054 A 
ATOM     22 C22  MOL A   1       8.865 -23.235  -9.818  1.00  0.00    -0.058 A 
ATOM     23 C23  MOL A   1      10.123 -22.747  -9.463  1.00  0.00    -0.016 A 
ATOM     24 C24  MOL A   1      10.246 -21.509  -8.805  1.00  0.00     0.161 A 
BRANCH  20  25
ATOM     25 C14  MOL A   1       6.545 -20.547  -8.452  1.00  0.00     0.028 C 
BRANCH  25  26
ATOM     26 N15  MOL A   1       5.483 -21.507  -8.086  1.00  0.00    -0.287 NA
ATOM     27 C16  MOL A   1       4.243 -21.257  -8.840  1.00  0.00     0.064 C 
ATOM     28 C17  MOL A   1       3.479 -20.857  -7.593  1.00  0.00     0.272 C 
ATOM     29 F18  MOL A   1       2.469 -21.740  -7.253  1.00  0.00    -0.204 F 
ATOM     30 F19  MOL A   1       3.091 -19.527  -7.580  1.00  0.00    -0.204 F 
ATOM     31 C20  MOL A   1       4.778 -21.112  -6.854  1.00  0.00     0.064 C 
ENDBRANCH  25  26
ENDBRANCH  20  25
BRANCH  24  32
ATOM     32 O25  MOL A   1      11.492 -20.984  -8.431  1.00  0.00    -0.493 OA
ATOM     33 C26  MOL A   1      12.495 -21.712  -7.731  1.00  0.00     0.078 C 
ENDBRANCH  24  32
ENDBRANCH  18  19
ENDBRANCH  17  18
ENDBRANCH  15  17
ENDBRANCH   8  14
ENDBRANCH   1   8
TORSDOF 10
ENDMDL
MODEL 207
REMARK VINA RESULT:    -7.370      6.191     11.110
REMARK INTER + INTRA:         -12.726
REMARK INTER:                 -11.754
REMARK INTRA:                  -0.972
REMARK UNBOUND:                -1.048
REMARK  10 active torsions:
REMARK  status: ('A' for Active; 'I' for Inactive)
REMARK   1   A    between atoms:  C27_1   and   C6_8  
REMARK   2   A    between atoms:  C6_8    and   C5_9  
REMARK   3   A    between atoms:  C5_9    and   C3_12 
REMARK   4   A    between atoms:  C6_8    and   N7_14 
REMARK   5   A    between atoms:  C8_15   and  C10_17 
REMARK   6   A    between atoms: C10_17   and  O11_18 
REMARK   7   A    between atoms: O11_18   and  C12_19 
REMARK   8   A    between atoms: C13_20   and  C14_25 
REMARK   9   A    between atoms: C14_25   and  N15_26 
REMARK   10  A    between atoms: C24_24   and  O25_32 
ROOT
ATOM      1 C27  MOL A   1       9.440 -18.169  -9.223  1.00  0.00    -0.024 A 
ATOM      2 C28  MOL A   1       9.077 -17.182  -8.288  1.00  0.00    -0.057 A 
ATOM      3 C29  MOL A   1       8.098 -16.234  -8.605  1.00  0.00    -0.061 A 
ATOM      4 C30  MOL A   1       7.474 -16.261  -9.856  1.00  0.00    -0.048 A 
ATOM      5 C31  MOL A   1       7.824 -17.240 -10.793  1.00  0.00     0.018 A 
ATOM      6 Br32 MOL A   1       6.954 -17.290 -12.496  1.00  0.00    -0.051 Br
ATOM      7 C33  MOL A   1       8.806 -18.186 -10.482  1.00  0.00    -0.043 A 
ENDROOT
BRANCH   1   8
ATOM      8  C6  MOL A   1      10.551 -19.146  -8.900  1.00  0.00     0.063 C 
BRANCH   8   9
ATOM      9  C5  MOL A   1       9.981 -20.361  -8.146  1.00  0.00     0.051 C 
BRANCH   9  12
ATOM     10  C1  MOL A   1       8.512 -22.488 -11.060  1.00  0.00     0.006 C 
ATOM     11  N2  MOL A   1       9.430 -21.731 -10.221  1.00  0.00    -0.359 N 
ATOM     12  C3  MOL A   1       9.007 -21.128  -8.993  1.00  0.00     0.222 C 
ATOM     13  O4  MOL A   1       7.810 -21.240  -8.613  1.00  0.00    -0.275 OA
ENDBRANCH   9  12
ENDBRANCH   8   9
BRANCH   8  14
ATOM     14  N7  MOL A   1      11.592 -18.486  -8.104  1.00  0.00    -0.346 N 
ATOM     15  C8  MOL A   1      12.916 -18.273  -8.596  1.00  0.00     0.258 C 
ATOM     16  O9  MOL A   1      13.236 -18.664  -9.751  1.00  0.00    -0.271 OA
BRANCH  15  17
ATOM     17 C10  MOL A   1      13.935 -17.570  -7.751  1.00  0.00     0.167 C 
BRANCH  17  18
ATOM     18 O11  MOL A   1      14.150 -18.280  -6.534  1.00  0.00    -0.480 OA
BRANCH  18  19
ATOM     19 C12  MOL A   1      15.409 -18.358  -5.933  1.00  0.00     0.166 A 
ATOM     20 C13  MOL A   1      15.786 -17.462  -4.906  1.00  0.00     0.012 A 
ATOM     21 C21  MOL A   1      17.031 -17.626  -4.276  1.00  0.00    -0.054 A 
ATOM     22 C22  MOL A   1      17.906 -18.631  -4.689  1.00  0.00    -0.058 A 
ATOM     23 C23  MOL A   1      17.553 -19.482  -5.736  1.00  0.00    -0.016 A 
ATOM     24 C24  MOL A   1      16.304 -19.349  -6.369  1.00  0.00     0.161 A 
BRANCH  20  25
ATOM     25 C14  MOL A   1      14.886 -16.328  -4.468  1.00  0.00     0.028 C 
BRANCH  25  26
ATOM     26 N15  MOL A   1      15.259 -15.866  -3.116  1.00  0.00    -0.287 NA
ATOM     27 C16  MOL A   1      14.077 -15.455  -2.339  1.00  0.00     0.064 C 
ATOM     28 C17  MOL A   1      14.515 -14.005  -2.301  1.00  0.00     0.272 C 
ATOM     29 F18  MOL A   1      14.847 -13.556  -1.035  1.00  0.00    -0.204 F 
ATOM     30 F19  MOL A   1      13.675 -13.150  -2.997  1.00  0.00    -0.204 F 
ATOM     31 C20  MOL A   1      15.711 -14.464  -3.113  1.00  0.00     0.064 C 
ENDBRANCH  25  26
ENDBRANCH  20  25
BRANCH  24  32
ATOM     32 O25  MOL A   1      15.911 -20.184  -7.426  1.00  0.00    -0.493 OA
ATOM     33 C26  MOL A   1      16.809 -20.937  -8.234  1.00  0.00     0.078 C 
ENDBRANCH  24  32
ENDBRANCH  18  19
ENDBRANCH  17  18
ENDBRANCH  15  17
ENDBRANCH   8  14
ENDBRANCH   1   8
TORSDOF 10
ENDMDL
MODEL 208
REMARK VINA RESULT:    -7.365      4.682      9.692
REMARK INTER + INTRA:         -12.718
REMARK INTER:                 -11.537
REMARK INTRA:                  -1.182
REMARK UNBOUND:                -1.048
REMARK  10 active torsions:
REMARK  status: ('A' for Active; 'I' for Inactive)
REMARK   1   A    between atoms:  C27_1   and   C6_8  
REMARK   2   A    between atoms:  C6_8    and   C5_9  
REMARK   3   A    between atoms:  C5_9    and   C3_12 
REMARK   4   A    between atoms:  C6_8    and   N7_14 
REMARK   5   A    between atoms:  C8_15   and  C10_17 
REMARK   6   A    between atoms: C10_17   and  O11_18 
REMARK   7   A    between atoms: O11_18   and  C12_19 
REMARK   8   A    between atoms: C13_20   and  C14_25 
REMARK   9   A    between atoms: C14_25   and  N15_26 
REMARK   10  A    between atoms: C24_24   and  O25_32 
ROOT
ATOM      1 C27  MOL A   1       6.345 -19.764  -8.941  1.00  0.00    -0.024 A 
ATOM      2 C28  MOL A   1       5.673 -19.243  -7.820  1.00  0.00    -0.057 A 
ATOM      3 C29  MOL A   1       4.412 -19.733  -7.460  1.00  0.00    -0.061 A 
ATOM      4 C30  MOL A   1       3.811 -20.744  -8.214  1.00  0.00    -0.048 A 
ATOM      5 C31  MOL A   1       4.471 -21.274  -9.329  1.00  0.00     0.018 A 
ATOM      6 Br32 MOL A   1       3.657 -22.674 -10.348  1.00  0.00    -0.051 Br
ATOM      7 C33  MOL A   1       5.728 -20.783  -9.695  1.00  0.00    -0.043 A 
ENDROOT
BRANCH   1   8
ATOM      8  C6  MOL A   1       7.675 -19.180  -9.365  1.00  0.00     0.063 C 
BRANCH   8   9
ATOM      9  C5  MOL A   1       7.562 -18.587 -10.781  1.00  0.00     0.051 C 
BRANCH   9  12
ATOM     10  C1  MOL A   1       5.987 -15.134 -11.658  1.00  0.00     0.006 C 
ATOM     11  N2  MOL A   1       6.324 -16.550 -11.679  1.00  0.00    -0.359 N 
ATOM     12  C3  MOL A   1       7.242 -17.121 -10.740  1.00  0.00     0.222 C 
ATOM     13  O4  MOL A   1       7.788 -16.392  -9.867  1.00  0.00    -0.275 OA
ENDBRANCH   9  12
ENDBRANCH   8   9
BRANCH   8  14
ATOM     14  N7  MOL A   1       8.720 -20.208  -9.318  1.00  0.00    -0.346 N 
ATOM     15  C8  MOL A   1       9.901 -20.068  -8.525  1.00  0.00     0.258 C 
ATOM     16  O9  MOL A   1      10.084 -19.029  -7.837  1.00  0.00    -0.271 OA
BRANCH  15  17
ATOM     17 C10  MOL A   1      10.926 -21.161  -8.492  1.00  0.00     0.167 C 
BRANCH  17  18
ATOM     18 O11  MOL A   1      12.008 -20.805  -7.635  1.00  0.00    -0.480 OA
BRANCH  18  19
ATOM     19 C12  MOL A   1      13.342 -20.931  -8.033  1.00  0.00     0.166 A 
ATOM     20 C13  MOL A   1      14.088 -19.808  -8.458  1.00  0.00     0.012 A 
ATOM     21 C21  MOL A   1      15.447 -19.967  -8.774  1.00  0.00    -0.054 A 
ATOM     22 C22  MOL A   1      16.045 -21.226  -8.716  1.00  0.00    -0.058 A 
ATOM     23 C23  MOL A   1      15.294 -22.342  -8.345  1.00  0.00    -0.016 A 
ATOM     24 C24  MOL A   1      13.935 -22.204  -8.005  1.00  0.00     0.161 A 
BRANCH  20  25
ATOM     25 C14  MOL A   1      13.461 -18.437  -8.584  1.00  0.00     0.028 C 
BRANCH  25  26
ATOM     26 N15  MOL A   1      13.493 -17.733  -7.286  1.00  0.00    -0.287 NA
ATOM     27 C16  MOL A   1      12.698 -16.494  -7.321  1.00  0.00     0.064 C 
ATOM     28 C17  MOL A   1      13.921 -15.617  -7.146  1.00  0.00     0.272 C 
ATOM     29 F18  MOL A   1      13.951 -14.937  -5.941  1.00  0.00    -0.204 F 
ATOM     30 F19  MOL A   1      14.198 -14.821  -8.246  1.00  0.00    -0.204 F 
ATOM     31 C20  MOL A   1      14.707 -16.914  -7.128  1.00  0.00     0.064 C 
ENDBRANCH  25  26
ENDBRANCH  20  25
BRANCH  24  32
ATOM     32 O25  MOL A   1      13.146 -23.300  -7.628  1.00  0.00    -0.493 OA
ATOM     33 C26  MOL A   1      12.803 -23.621  -6.284  1.00  0.00     0.078 C 
ENDBRANCH  24  32
ENDBRANCH  18  19
ENDBRANCH  17  18
ENDBRANCH  15  17
ENDBRANCH   8  14
ENDBRANCH   1   8
TORSDOF 10
ENDMDL
MODEL 209
REMARK VINA RESULT:    -7.365      6.797     11.115
REMARK INTER + INTRA:         -12.718
REMARK INTER:                 -11.412
REMARK INTRA:                  -1.306
REMARK UNBOUND:                -1.048
REMARK  10 active torsions:
REMARK  status: ('A' for Active; 'I' for Inactive)
REMARK   1   A    between atoms:  C27_1   and   C6_8  
REMARK   2   A    between atoms:  C6_8    and   C5_9  
REMARK   3   A    between atoms:  C5_9    and   C3_12 
REMARK   4   A    between atoms:  C6_8    and   N7_14 
REMARK   5   A    between atoms:  C8_15   and  C10_17 
REMARK   6   A    between atoms: C10_17   and  O11_18 
REMARK   7   A    between atoms: O11_18   and  C12_19 
REMARK   8   A    between atoms: C13_20   and  C14_25 
REMARK   9   A    between atoms: C14_25   and  N15_26 
REMARK   10  A    between atoms: C24_24   and  O25_32 
ROOT
ATOM      1 C27  MOL A   1      10.131 -18.417  -9.013  1.00  0.00    -0.024 A 
ATOM      2 C28  MOL A   1       9.797 -17.402  -8.098  1.00  0.00    -0.057 A 
ATOM      3 C29  MOL A   1       8.744 -16.522  -8.370  1.00  0.00    -0.061 A 
ATOM      4 C30  MOL A   1       8.015 -16.646  -9.556  1.00  0.00    -0.048 A 
ATOM      5 C31  MOL A   1       8.334 -17.653 -10.473  1.00  0.00     0.018 A 
ATOM      6 Br32 MOL A   1       7.322 -17.836 -12.086  1.00  0.00    -0.051 Br
ATOM      7 C33  MOL A   1       9.390 -18.531 -10.207  1.00  0.00    -0.043 A 
ENDROOT
BRANCH   1   8
ATOM      8  C6  MOL A   1      11.317 -19.318  -8.745  1.00  0.00     0.063 C 
BRANCH   8   9
ATOM      9  C5  MOL A   1      10.920 -20.432  -7.760  1.00  0.00     0.051 C 
BRANCH   9  12
ATOM     10  C1  MOL A   1      11.771 -24.071  -8.860  1.00  0.00     0.006 C 
ATOM     11  N2  MOL A   1      11.048 -22.837  -8.590  1.00  0.00    -0.359 N 
ATOM     12  C3  MOL A   1      11.692 -21.694  -8.017  1.00  0.00     0.222 C 
ATOM     13  O4  MOL A   1      12.919 -21.739  -7.726  1.00  0.00    -0.275 OA
ENDBRANCH   9  12
ENDBRANCH   8   9
BRANCH   8  14
ATOM     14  N7  MOL A   1      12.440 -18.536  -8.217  1.00  0.00    -0.346 N 
ATOM     15  C8  MOL A   1      13.661 -18.361  -8.937  1.00  0.00     0.258 C 
ATOM     16  O9  MOL A   1      13.814 -18.894 -10.068  1.00  0.00    -0.271 OA
BRANCH  15  17
ATOM     17 C10  MOL A   1      14.768 -17.530  -8.361  1.00  0.00     0.167 C 
BRANCH  17  18
ATOM     18 O11  MOL A   1      15.094 -17.974  -7.046  1.00  0.00    -0.480 OA
BRANCH  18  19
ATOM     19 C12  MOL A   1      16.380 -17.840  -6.516  1.00  0.00     0.166 A 
ATOM     20 C13  MOL A   1      16.772 -16.664  -5.836  1.00  0.00     0.012 A 
ATOM     21 C21  MOL A   1      18.047 -16.603  -5.250  1.00  0.00    -0.054 A 
ATOM     22 C22  MOL A   1      18.936 -17.671  -5.378  1.00  0.00    -0.058 A 
ATOM     23 C23  MOL A   1      18.566 -18.810  -6.092  1.00  0.00    -0.016 A 
ATOM     24 C24  MOL A   1      17.287 -18.902  -6.671  1.00  0.00     0.161 A 
BRANCH  20  25
ATOM     25 C14  MOL A   1      15.855 -15.466  -5.723  1.00  0.00     0.028 C 
BRANCH  25  26
ATOM     26 N15  MOL A   1      14.786 -15.726  -4.736  1.00  0.00    -0.287 NA
ATOM     27 C16  MOL A   1      13.618 -14.858  -4.962  1.00  0.00     0.064 C 
ATOM     28 C17  MOL A   1      13.821 -14.121  -3.653  1.00  0.00     0.272 C 
ATOM     29 F18  MOL A   1      12.814 -14.341  -2.729  1.00  0.00    -0.204 F 
ATOM     30 F19  MOL A   1      14.155 -12.786  -3.811  1.00  0.00    -0.204 F 
ATOM     31 C20  MOL A   1      15.024 -15.024  -3.463  1.00  0.00     0.064 C 
ENDBRANCH  25  26
ENDBRANCH  20  25
BRANCH  24  32
ATOM     32 O25  MOL A   1      16.876 -20.029  -7.397  1.00  0.00    -0.493 OA
ATOM     33 C26  MOL A   1      17.434 -21.330  -7.248  1.00  0.00     0.078 C 
ENDBRANCH  24  32
ENDBRANCH  18  19
ENDBRANCH  17  18
ENDBRANCH  15  17
ENDBRANCH   8  14
ENDBRANCH   1   8
TORSDOF 10
ENDMDL
MODEL 210
REMARK VINA RESULT:    -7.363      7.305     12.339
REMARK INTER + INTRA:         -12.715
REMARK INTER:                 -11.366
REMARK INTRA:                  -1.349
REMARK UNBOUND:                -1.048
REMARK  10 active torsions:
REMARK  status: ('A' for Active; 'I' for Inactive)
REMARK   1   A    between atoms:  C27_1   and   C6_8  
REMARK   2   A    between atoms:  C6_8    and   C5_9  
REMARK   3   A    between atoms:  C5_9    and   C3_12 
REMARK   4   A    between atoms:  C6_8    and   N7_14 
REMARK   5   A    between atoms:  C8_15   and  C10_17 
REMARK   6   A    between atoms: C10_17   and  O11_18 
REMARK   7   A    between atoms: O11_18   and  C12_19 
REMARK   8   A    between atoms: C13_20   and  C14_25 
REMARK   9   A    between atoms: C14_25   and  N15_26 
REMARK   10  A    between atoms: C24_24   and  O25_32 
ROOT
ATOM      1 C27  MOL A   1       9.511 -18.164  -9.143  1.00  0.00    -0.024 A 
ATOM      2 C28  MOL A   1       9.123 -17.146  -8.253  1.00  0.00    -0.057 A 
ATOM      3 C29  MOL A   1       8.146 -16.217  -8.623  1.00  0.00    -0.061 A 
ATOM      4 C30  MOL A   1       7.547 -16.293  -9.884  1.00  0.00    -0.048 A 
ATOM      5 C31  MOL A   1       7.921 -17.303 -10.778  1.00  0.00     0.018 A 
ATOM      6 Br32 MOL A   1       7.085 -17.420 -12.495  1.00  0.00    -0.051 Br
ATOM      7 C33  MOL A   1       8.902 -18.230 -10.413  1.00  0.00    -0.043 A 
ENDROOT
BRANCH   1   8
ATOM      8  C6  MOL A   1      10.621 -19.121  -8.763  1.00  0.00     0.063 C 
BRANCH   8   9
ATOM      9  C5  MOL A   1      10.028 -20.382  -8.109  1.00  0.00     0.051 C 
BRANCH   9  12
ATOM     10  C1  MOL A   1       9.647 -22.991 -10.976  1.00  0.00     0.006 C 
ATOM     11  N2  MOL A   1       9.450 -21.826 -10.126  1.00  0.00    -0.359 N 
ATOM     12  C3  MOL A   1      10.249 -21.599  -8.960  1.00  0.00     0.222 C 
ATOM     13  O4  MOL A   1      11.149 -22.423  -8.640  1.00  0.00    -0.275 OA
ENDBRANCH   9  12
ENDBRANCH   8   9
BRANCH   8  14
ATOM     14  N7  MOL A   1      11.569 -18.465  -7.856  1.00  0.00    -0.346 N 
ATOM     15  C8  MOL A   1      12.961 -18.788  -7.833  1.00  0.00     0.258 C 
ATOM     16  O9  MOL A   1      13.420 -19.673  -8.603  1.00  0.00    -0.271 OA
BRANCH  15  17
ATOM     17 C10  MOL A   1      13.891 -18.068  -6.904  1.00  0.00     0.167 C 
BRANCH  17  18
ATOM     18 O11  MOL A   1      15.187 -17.954  -7.486  1.00  0.00    -0.480 OA
BRANCH  18  19
ATOM     19 C12  MOL A   1      16.342 -17.842  -6.707  1.00  0.00     0.166 A 
ATOM     20 C13  MOL A   1      17.067 -18.988  -6.305  1.00  0.00     0.012 A 
ATOM     21 C21  MOL A   1      18.265 -18.825  -5.590  1.00  0.00    -0.054 A 
ATOM     22 C22  MOL A   1      18.712 -17.552  -5.237  1.00  0.00    -0.058 A 
ATOM     23 C23  MOL A   1      17.969 -16.425  -5.591  1.00  0.00    -0.016 A 
ATOM     24 C24  MOL A   1      16.776 -16.562  -6.325  1.00  0.00     0.161 A 
BRANCH  20  25
ATOM     25 C14  MOL A   1      16.586 -20.386  -6.623  1.00  0.00     0.028 C 
BRANCH  25  26
ATOM     26 N15  MOL A   1      17.727 -21.256  -6.977  1.00  0.00    -0.287 NA
ATOM     27 C16  MOL A   1      17.968 -21.269  -8.430  1.00  0.00     0.064 C 
ATOM     28 C17  MOL A   1      17.589 -22.732  -8.553  1.00  0.00     0.272 C 
ATOM     29 F18  MOL A   1      18.647 -23.552  -8.904  1.00  0.00    -0.204 F 
ATOM     30 F19  MOL A   1      16.440 -22.950  -9.295  1.00  0.00    -0.204 F 
ATOM     31 C20  MOL A   1      17.340 -22.675  -7.058  1.00  0.00     0.064 C 
ENDBRANCH  25  26
ENDBRANCH  20  25
BRANCH  24  32
ATOM     32 O25  MOL A   1      16.000 -15.456  -6.699  1.00  0.00    -0.493 OA
ATOM     33 C26  MOL A   1      16.166 -14.728  -7.912  1.00  0.00     0.078 C 
ENDBRANCH  24  32
ENDBRANCH  18  19
ENDBRANCH  17  18
ENDBRANCH  15  17
ENDBRANCH   8  14
ENDBRANCH   1   8
TORSDOF 10
ENDMDL
MODEL 211
REMARK VINA RESULT:    -7.358      6.384     11.074
REMARK INTER + INTRA:         -12.709
REMARK INTER:                 -11.214
REMARK INTRA:                  -1.494
REMARK UNBOUND:                -1.048
REMARK  10 active torsions:
REMARK  status: ('A' for Active; 'I' for Inactive)
REMARK   1   A    between atoms:  C27_1   and   C6_8  
REMARK   2   A    between atoms:  C6_8    and   C5_9  
REMARK   3   A    between atoms:  C5_9    and   C3_12 
REMARK   4   A    between atoms:  C6_8    and   N7_14 
REMARK   5   A    between atoms:  C8_15   and  C10_17 
REMARK   6   A    between atoms: C10_17   and  O11_18 
REMARK   7   A    between atoms: O11_18   and  C12_19 
REMARK   8   A    between atoms: C13_20   and  C14_25 
REMARK   9   A    between atoms: C14_25   and  N15_26 
REMARK   10  A    between atoms: C24_24   and  O25_32 
ROOT
ATOM      1 C27  MOL A   1       8.531 -17.588  -9.265  1.00  0.00    -0.024 A 
ATOM      2 C28  MOL A   1       8.176 -17.209 -10.572  1.00  0.00    -0.057 A 
ATOM      3 C29  MOL A   1       6.957 -16.566 -10.816  1.00  0.00    -0.061 A 
ATOM      4 C30  MOL A   1       6.084 -16.296  -9.759  1.00  0.00    -0.048 A 
ATOM      5 C31  MOL A   1       6.426 -16.665  -8.454  1.00  0.00     0.018 A 
ATOM      6 Br32 MOL A   1       5.239 -16.275  -7.005  1.00  0.00    -0.051 Br
ATOM      7 C33  MOL A   1       7.641 -17.313  -8.207  1.00  0.00    -0.043 A 
ENDROOT
BRANCH   1   8
ATOM      8  C6  MOL A   1       9.817 -18.348  -9.020  1.00  0.00     0.063 C 
BRANCH   8   9
ATOM      9  C5  MOL A   1       9.544 -19.575  -8.131  1.00  0.00     0.051 C 
BRANCH   9  12
ATOM     10  C1  MOL A   1       9.078 -22.321 -10.855  1.00  0.00     0.006 C 
ATOM     11  N2  MOL A   1       9.623 -21.219 -10.075  1.00  0.00    -0.359 N 
ATOM     12  C3  MOL A   1       8.950 -20.705  -8.921  1.00  0.00     0.222 C 
ATOM     13  O4  MOL A   1       7.850 -21.204  -8.556  1.00  0.00    -0.275 OA
ENDBRANCH   9  12
ENDBRANCH   8   9
BRANCH   8  14
ATOM     14  N7  MOL A   1      10.815 -17.471  -8.398  1.00  0.00    -0.346 N 
ATOM     15  C8  MOL A   1      12.212 -17.574  -8.680  1.00  0.00     0.258 C 
ATOM     16  O9  MOL A   1      12.635 -18.448  -9.483  1.00  0.00    -0.271 OA
BRANCH  15  17
ATOM     17 C10  MOL A   1      13.187 -16.635  -8.036  1.00  0.00     0.167 C 
BRANCH  17  18
ATOM     18 O11  MOL A   1      13.684 -17.189  -6.820  1.00  0.00    -0.480 OA
BRANCH  18  19
ATOM     19 C12  MOL A   1      15.010 -17.015  -6.414  1.00  0.00     0.166 A 
ATOM     20 C13  MOL A   1      16.015 -17.940  -6.780  1.00  0.00     0.012 A 
ATOM     21 C21  MOL A   1      17.347 -17.684  -6.417  1.00  0.00    -0.054 A 
ATOM     22 C22  MOL A   1      17.672 -16.556  -5.663  1.00  0.00    -0.058 A 
ATOM     23 C23  MOL A   1      16.672 -15.671  -5.260  1.00  0.00    -0.016 A 
ATOM     24 C24  MOL A   1      15.332 -15.896  -5.629  1.00  0.00     0.161 A 
BRANCH  20  25
ATOM     25 C14  MOL A   1      15.693 -19.201  -7.552  1.00  0.00     0.028 C 
BRANCH  25  26
ATOM     26 N15  MOL A   1      15.226 -20.261  -6.636  1.00  0.00    -0.287 NA
ATOM     27 C16  MOL A   1      16.111 -21.438  -6.674  1.00  0.00     0.064 C 
ATOM     28 C17  MOL A   1      15.034 -22.319  -7.277  1.00  0.00     0.272 C 
ATOM     29 F18  MOL A   1      14.605 -23.329  -6.434  1.00  0.00    -0.204 F 
ATOM     30 F19  MOL A   1      15.320 -22.746  -8.564  1.00  0.00    -0.204 F 
ATOM     31 C20  MOL A   1      14.159 -21.082  -7.234  1.00  0.00     0.064 C 
ENDBRANCH  25  26
ENDBRANCH  20  25
BRANCH  24  32
ATOM     32 O25  MOL A   1      14.298 -15.031  -5.243  1.00  0.00    -0.493 OA
ATOM     33 C26  MOL A   1      14.067 -14.596  -3.907  1.00  0.00     0.078 C 
ENDBRANCH  24  32
ENDBRANCH  18  19
ENDBRANCH  17  18
ENDBRANCH  15  17
ENDBRANCH   8  14
ENDBRANCH   1   8
TORSDOF 10
ENDMDL
MODEL 212
REMARK VINA RESULT:    -7.356      2.828      5.367
REMARK INTER + INTRA:         -12.705
REMARK INTER:                 -12.623
REMARK INTRA:                  -0.081
REMARK UNBOUND:                -1.048
REMARK  10 active torsions:
REMARK  status: ('A' for Active; 'I' for Inactive)
REMARK   1   A    between atoms:  C27_1   and   C6_8  
REMARK   2   A    between atoms:  C6_8    and   C5_9  
REMARK   3   A    between atoms:  C5_9    and   C3_12 
REMARK   4   A    between atoms:  C6_8    and   N7_14 
REMARK   5   A    between atoms:  C8_15   and  C10_17 
REMARK   6   A    between atoms: C10_17   and  O11_18 
REMARK   7   A    between atoms: O11_18   and  C12_19 
REMARK   8   A    between atoms: C13_20   and  C14_25 
REMARK   9   A    between atoms: C14_25   and  N15_26 
REMARK   10  A    between atoms: C24_24   and  O25_32 
ROOT
ATOM      1 C27  MOL A   1       6.868 -21.156  -9.291  1.00  0.00    -0.024 A 
ATOM      2 C28  MOL A   1       6.221 -20.974 -10.527  1.00  0.00    -0.057 A 
ATOM      3 C29  MOL A   1       6.678 -21.640 -11.669  1.00  0.00    -0.061 A 
ATOM      4 C30  MOL A   1       7.783 -22.491 -11.590  1.00  0.00    -0.048 A 
ATOM      5 C31  MOL A   1       8.434 -22.683 -10.366  1.00  0.00     0.018 A 
ATOM      6 Br32 MOL A   1       9.934 -23.866 -10.254  1.00  0.00    -0.051 Br
ATOM      7 C33  MOL A   1       7.983 -22.015  -9.223  1.00  0.00    -0.043 A 
ENDROOT
BRANCH   1   8
ATOM      8  C6  MOL A   1       6.413 -20.377  -8.076  1.00  0.00     0.063 C 
BRANCH   8   9
ATOM      9  C5  MOL A   1       4.935 -19.975  -8.231  1.00  0.00     0.051 C 
BRANCH   9  12
ATOM     10  C1  MOL A   1       1.736 -22.053  -7.441  1.00  0.00     0.006 C 
ATOM     11  N2  MOL A   1       2.646 -21.069  -8.011  1.00  0.00    -0.359 N 
ATOM     12  C3  MOL A   1       4.020 -20.994  -7.616  1.00  0.00     0.222 C 
ATOM     13  O4  MOL A   1       4.473 -21.789  -6.748  1.00  0.00    -0.275 OA
ENDBRANCH   9  12
ENDBRANCH   8   9
BRANCH   8  14
ATOM     14  N7  MOL A   1       7.254 -19.190  -7.889  1.00  0.00    -0.346 N 
ATOM     15  C8  MOL A   1       6.766 -17.862  -8.091  1.00  0.00     0.258 C 
ATOM     16  O9  MOL A   1       5.574 -17.671  -8.453  1.00  0.00    -0.271 OA
BRANCH  15  17
ATOM     17 C10  MOL A   1       7.661 -16.681  -7.860  1.00  0.00     0.167 C 
BRANCH  17  18
ATOM     18 O11  MOL A   1       8.005 -16.066  -9.099  1.00  0.00    -0.480 OA
BRANCH  18  19
ATOM     19 C12  MOL A   1       7.777 -16.694 -10.327  1.00  0.00     0.166 A 
ATOM     20 C13  MOL A   1       6.739 -16.264 -11.185  1.00  0.00     0.012 A 
ATOM     21 C21  MOL A   1       6.596 -16.872 -12.444  1.00  0.00    -0.054 A 
ATOM     22 C22  MOL A   1       7.436 -17.918 -12.825  1.00  0.00    -0.058 A 
ATOM     23 C23  MOL A   1       8.427 -18.373 -11.956  1.00  0.00    -0.016 A 
ATOM     24 C24  MOL A   1       8.603 -17.768 -10.698  1.00  0.00     0.161 A 
BRANCH  20  25
ATOM     25 C14  MOL A   1       5.776 -15.169 -10.785  1.00  0.00     0.028 C 
BRANCH  25  26
ATOM     26 N15  MOL A   1       5.120 -14.597 -11.978  1.00  0.00    -0.287 NA
ATOM     27 C16  MOL A   1       5.212 -13.127 -11.994  1.00  0.00     0.064 C 
ATOM     28 C17  MOL A   1       3.714 -12.959 -11.832  1.00  0.00     0.272 C 
ATOM     29 F18  MOL A   1       3.093 -12.404 -12.938  1.00  0.00    -0.204 F 
ATOM     30 F19  MOL A   1       3.345 -12.376 -10.630  1.00  0.00    -0.204 F 
ATOM     31 C20  MOL A   1       3.662 -14.474 -11.807  1.00  0.00     0.064 C 
ENDBRANCH  25  26
ENDBRANCH  20  25
BRANCH  24  32
ATOM     32 O25  MOL A   1       9.586 -18.196  -9.795  1.00  0.00    -0.493 OA
ATOM     33 C26  MOL A   1      10.583 -19.168 -10.091  1.00  0.00     0.078 C 
ENDBRANCH  24  32
ENDBRANCH  18  19
ENDBRANCH  17  18
ENDBRANCH  15  17
ENDBRANCH   8  14
ENDBRANCH   1   8
TORSDOF 10
ENDMDL
MODEL 213
REMARK VINA RESULT:    -7.354      7.211     11.801
REMARK INTER + INTRA:         -12.702
REMARK INTER:                 -11.059
REMARK INTRA:                  -1.644
REMARK UNBOUND:                -1.048
REMARK  10 active torsions:
REMARK  status: ('A' for Active; 'I' for Inactive)
REMARK   1   A    between atoms:  C27_1   and   C6_8  
REMARK   2   A    between atoms:  C6_8    and   C5_9  
REMARK   3   A    between atoms:  C5_9    and   C3_12 
REMARK   4   A    between atoms:  C6_8    and   N7_14 
REMARK   5   A    between atoms:  C8_15   and  C10_17 
REMARK   6   A    between atoms: C10_17   and  O11_18 
REMARK   7   A    between atoms: O11_18   and  C12_19 
REMARK   8   A    between atoms: C13_20   and  C14_25 
REMARK   9   A    between atoms: C14_25   and  N15_26 
REMARK   10  A    between atoms: C24_24   and  O25_32 
ROOT
ATOM      1 C27  MOL A   1      10.080 -17.809  -8.621  1.00  0.00    -0.024 A 
ATOM      2 C28  MOL A   1       9.508 -16.744  -7.901  1.00  0.00    -0.057 A 
ATOM      3 C29  MOL A   1       8.350 -16.114  -8.369  1.00  0.00    -0.061 A 
ATOM      4 C30  MOL A   1       7.751 -16.541  -9.557  1.00  0.00    -0.048 A 
ATOM      5 C31  MOL A   1       8.307 -17.602 -10.281  1.00  0.00     0.018 A 
ATOM      6 Br32 MOL A   1       7.475 -18.199 -11.897  1.00  0.00    -0.051 Br
ATOM      7 C33  MOL A   1       9.468 -18.230  -9.819  1.00  0.00    -0.043 A 
ENDROOT
BRANCH   1   8
ATOM      8  C6  MOL A   1      11.373 -18.436  -8.146  1.00  0.00     0.063 C 
BRANCH   8   9
ATOM      9  C5  MOL A   1      11.088 -19.796  -7.484  1.00  0.00     0.051 C 
BRANCH   9  12
ATOM     10  C1  MOL A   1      13.487 -22.775  -6.749  1.00  0.00     0.006 C 
ATOM     11  N2  MOL A   1      12.335 -21.885  -6.732  1.00  0.00    -0.359 N 
ATOM     12  C3  MOL A   1      12.295 -20.687  -7.515  1.00  0.00     0.222 C 
ATOM     13  O4  MOL A   1      13.278 -20.373  -8.240  1.00  0.00    -0.275 OA
ENDBRANCH   9  12
ENDBRANCH   8   9
BRANCH   8  14
ATOM     14  N7  MOL A   1      12.059 -17.539  -7.210  1.00  0.00    -0.346 N 
ATOM     15  C8  MOL A   1      13.301 -16.905  -7.522  1.00  0.00     0.258 C 
ATOM     16  O9  MOL A   1      13.859 -17.113  -8.633  1.00  0.00    -0.271 OA
BRANCH  15  17
ATOM     17 C10  MOL A   1      13.947 -15.977  -6.539  1.00  0.00     0.167 C 
BRANCH  17  18
ATOM     18 O11  MOL A   1      14.563 -16.715  -5.485  1.00  0.00    -0.480 OA
BRANCH  18  19
ATOM     19 C12  MOL A   1      15.936 -16.646  -5.236  1.00  0.00     0.166 A 
ATOM     20 C13  MOL A   1      16.829 -17.587  -5.797  1.00  0.00     0.012 A 
ATOM     21 C21  MOL A   1      18.209 -17.433  -5.584  1.00  0.00    -0.054 A 
ATOM     22 C22  MOL A   1      18.692 -16.394  -4.790  1.00  0.00    -0.058 A 
ATOM     23 C23  MOL A   1      17.805 -15.495  -4.196  1.00  0.00    -0.016 A 
ATOM     24 C24  MOL A   1      16.419 -15.617  -4.411  1.00  0.00     0.161 A 
BRANCH  20  25
ATOM     25 C14  MOL A   1      16.339 -18.758  -6.620  1.00  0.00     0.028 C 
BRANCH  25  26
ATOM     26 N15  MOL A   1      17.324 -19.101  -7.666  1.00  0.00    -0.287 NA
ATOM     27 C16  MOL A   1      16.673 -19.345  -8.964  1.00  0.00     0.064 C 
ATOM     28 C17  MOL A   1      17.058 -20.811  -8.965  1.00  0.00     0.272 C 
ATOM     29 F18  MOL A   1      17.965 -21.147  -9.955  1.00  0.00    -0.204 F 
ATOM     30 F19  MOL A   1      15.976 -21.672  -8.880  1.00  0.00    -0.204 F 
ATOM     31 C20  MOL A   1      17.706 -20.524  -7.624  1.00  0.00     0.064 C 
ENDBRANCH  25  26
ENDBRANCH  20  25
BRANCH  24  32
ATOM     32 O25  MOL A   1      15.495 -14.736  -3.831  1.00  0.00    -0.493 OA
ATOM     33 C26  MOL A   1      15.389 -14.483  -2.434  1.00  0.00     0.078 C 
ENDBRANCH  24  32
ENDBRANCH  18  19
ENDBRANCH  17  18
ENDBRANCH  15  17
ENDBRANCH   8  14
ENDBRANCH   1   8
TORSDOF 10
ENDMDL
MODEL 214
REMARK VINA RESULT:    -7.349      6.244     10.902
REMARK INTER + INTRA:         -12.694
REMARK INTER:                 -11.486
REMARK INTRA:                  -1.208
REMARK UNBOUND:                -1.048
REMARK  10 active torsions:
REMARK  status: ('A' for Active; 'I' for Inactive)
REMARK   1   A    between atoms:  C27_1   and   C6_8  
REMARK   2   A    between atoms:  C6_8    and   C5_9  
REMARK   3   A    between atoms:  C5_9    and   C3_12 
REMARK   4   A    between atoms:  C6_8    and   N7_14 
REMARK   5   A    between atoms:  C8_15   and  C10_17 
REMARK   6   A    between atoms: C10_17   and  O11_18 
REMARK   7   A    between atoms: O11_18   and  C12_19 
REMARK   8   A    between atoms: C13_20   and  C14_25 
REMARK   9   A    between atoms: C14_25   and  N15_26 
REMARK   10  A    between atoms: C24_24   and  O25_32 
ROOT
ATOM      1 C27  MOL A   1       8.275 -20.109 -10.062  1.00  0.00    -0.024 A 
ATOM      2 C28  MOL A   1       7.057 -20.269 -10.748  1.00  0.00    -0.057 A 
ATOM      3 C29  MOL A   1       6.615 -21.544 -11.116  1.00  0.00    -0.061 A 
ATOM      4 C30  MOL A   1       7.382 -22.670 -10.804  1.00  0.00    -0.048 A 
ATOM      5 C31  MOL A   1       8.594 -22.524 -10.118  1.00  0.00     0.018 A 
ATOM      6 Br32 MOL A   1       9.633 -24.068  -9.672  1.00  0.00    -0.051 Br
ATOM      7 C33  MOL A   1       9.042 -21.251  -9.754  1.00  0.00    -0.043 A 
ENDROOT
BRANCH   1   8
ATOM      8  C6  MOL A   1       8.781 -18.721  -9.732  1.00  0.00     0.063 C 
BRANCH   8   9
ATOM      9  C5  MOL A   1       8.026 -17.672 -10.567  1.00  0.00     0.051 C 
BRANCH   9  12
ATOM     10  C1  MOL A   1       5.777 -16.634  -7.561  1.00  0.00     0.006 C 
ATOM     11  N2  MOL A   1       6.750 -17.331  -8.390  1.00  0.00    -0.359 N 
ATOM     12  C3  MOL A   1       7.009 -16.938  -9.742  1.00  0.00     0.222 C 
ATOM     13  O4  MOL A   1       6.383 -15.968 -10.249  1.00  0.00    -0.275 OA
ENDBRANCH   9  12
ENDBRANCH   8   9
BRANCH   8  14
ATOM     14  N7  MOL A   1      10.225 -18.635  -9.977  1.00  0.00    -0.346 N 
ATOM     15  C8  MOL A   1      11.125 -18.013  -9.057  1.00  0.00     0.258 C 
ATOM     16  O9  MOL A   1      10.691 -17.501  -7.991  1.00  0.00    -0.271 OA
BRANCH  15  17
ATOM     17 C10  MOL A   1      12.596 -17.976  -9.345  1.00  0.00     0.167 C 
BRANCH  17  18
ATOM     18 O11  MOL A   1      13.332 -17.724  -8.150  1.00  0.00    -0.480 OA
BRANCH  18  19
ATOM     19 C12  MOL A   1      14.481 -16.929  -8.140  1.00  0.00     0.166 A 
ATOM     20 C13  MOL A   1      15.730 -17.445  -8.553  1.00  0.00     0.012 A 
ATOM     21 C21  MOL A   1      16.843 -16.589  -8.602  1.00  0.00    -0.054 A 
ATOM     22 C22  MOL A   1      16.730 -15.257  -8.203  1.00  0.00    -0.058 A 
ATOM     23 C23  MOL A   1      15.507 -14.763  -7.748  1.00  0.00    -0.016 A 
ATOM     24 C24  MOL A   1      14.374 -15.597  -7.709  1.00  0.00     0.161 A 
BRANCH  20  25
ATOM     25 C14  MOL A   1      15.904 -18.897  -8.942  1.00  0.00     0.028 C 
BRANCH  25  26
ATOM     26 N15  MOL A   1      17.317 -19.303  -8.802  1.00  0.00    -0.287 NA
ATOM     27 C16  MOL A   1      17.837 -19.891 -10.048  1.00  0.00     0.064 C 
ATOM     28 C17  MOL A   1      18.007 -21.259  -9.418  1.00  0.00     0.272 C 
ATOM     29 F18  MOL A   1      19.327 -21.658  -9.302  1.00  0.00    -0.204 F 
ATOM     30 F19  MOL A   1      17.174 -22.227  -9.955  1.00  0.00    -0.204 F 
ATOM     31 C20  MOL A   1      17.455 -20.621  -8.158  1.00  0.00     0.064 C 
ENDBRANCH  25  26
ENDBRANCH  20  25
BRANCH  24  32
ATOM     32 O25  MOL A   1      13.127 -15.139  -7.258  1.00  0.00    -0.493 OA
ATOM     33 C26  MOL A   1      12.720 -15.125  -5.894  1.00  0.00     0.078 C 
ENDBRANCH  24  32
ENDBRANCH  18  19
ENDBRANCH  17  18
ENDBRANCH  15  17
ENDBRANCH   8  14
ENDBRANCH   1   8
TORSDOF 10
ENDMDL
MODEL 215
REMARK VINA RESULT:    -7.349      3.773      8.303
REMARK INTER + INTRA:         -12.693
REMARK INTER:                 -13.018
REMARK INTRA:                   0.325
REMARK UNBOUND:                -1.048
REMARK  10 active torsions:
REMARK  status: ('A' for Active; 'I' for Inactive)
REMARK   1   A    between atoms:  C27_1   and   C6_8  
REMARK   2   A    between atoms:  C6_8    and   C5_9  
REMARK   3   A    between atoms:  C5_9    and   C3_12 
REMARK   4   A    between atoms:  C6_8    and   N7_14 
REMARK   5   A    between atoms:  C8_15   and  C10_17 
REMARK   6   A    between atoms: C10_17   and  O11_18 
REMARK   7   A    between atoms: O11_18   and  C12_19 
REMARK   8   A    between atoms: C13_20   and  C14_25 
REMARK   9   A    between atoms: C14_25   and  N15_26 
REMARK   10  A    between atoms: C24_24   and  O25_32 
ROOT
ATOM      1 C27  MOL A   1       3.762 -14.457  -9.893  1.00  0.00    -0.024 A 
ATOM      2 C28  MOL A   1       2.400 -14.208 -10.139  1.00  0.00    -0.057 A 
ATOM      3 C29  MOL A   1       1.446 -14.447  -9.144  1.00  0.00    -0.061 A 
ATOM      4 C30  MOL A   1       1.841 -14.937  -7.896  1.00  0.00    -0.048 A 
ATOM      5 C31  MOL A   1       3.194 -15.186  -7.637  1.00  0.00     0.018 A 
ATOM      6 Br32 MOL A   1       3.737 -15.835  -5.922  1.00  0.00    -0.051 Br
ATOM      7 C33  MOL A   1       4.150 -14.953  -8.631  1.00  0.00    -0.043 A 
ENDROOT
BRANCH   1   8
ATOM      8  C6  MOL A   1       4.779 -14.265 -10.998  1.00  0.00     0.063 C 
BRANCH   8   9
ATOM      9  C5  MOL A   1       4.133 -14.556 -12.364  1.00  0.00     0.051 C 
BRANCH   9  12
ATOM     10  C1  MOL A   1       3.230 -11.028 -13.747  1.00  0.00     0.006 C 
ATOM     11  N2  MOL A   1       3.261 -12.230 -12.926  1.00  0.00    -0.359 N 
ATOM     12  C3  MOL A   1       4.117 -13.334 -13.237  1.00  0.00     0.222 C 
ATOM     13  O4  MOL A   1       4.868 -13.287 -14.250  1.00  0.00    -0.275 OA
ENDBRANCH   9  12
ENDBRANCH   8   9
BRANCH   8  14
ATOM     14  N7  MOL A   1       5.939 -15.135 -10.778  1.00  0.00    -0.346 N 
ATOM     15  C8  MOL A   1       6.331 -16.144 -11.712  1.00  0.00     0.258 C 
ATOM     16  O9  MOL A   1       5.669 -16.323 -12.768  1.00  0.00    -0.271 OA
BRANCH  15  17
ATOM     17 C10  MOL A   1       7.541 -16.989 -11.450  1.00  0.00     0.167 C 
BRANCH  17  18
ATOM     18 O11  MOL A   1       7.157 -18.276 -10.974  1.00  0.00    -0.480 OA
BRANCH  18  19
ATOM     19 C12  MOL A   1       7.976 -19.027 -10.126  1.00  0.00     0.166 A 
ATOM     20 C13  MOL A   1       7.468 -19.597  -8.936  1.00  0.00     0.012 A 
ATOM     21 C21  MOL A   1       8.305 -20.410  -8.154  1.00  0.00    -0.054 A 
ATOM     22 C22  MOL A   1       9.636 -20.615  -8.519  1.00  0.00    -0.058 A 
ATOM     23 C23  MOL A   1      10.149 -20.010  -9.667  1.00  0.00    -0.016 A 
ATOM     24 C24  MOL A   1       9.324 -19.208 -10.477  1.00  0.00     0.161 A 
BRANCH  20  25
ATOM     25 C14  MOL A   1       6.046 -19.354  -8.479  1.00  0.00     0.028 C 
BRANCH  25  26
ATOM     26 N15  MOL A   1       5.552 -20.506  -7.698  1.00  0.00    -0.287 NA
ATOM     27 C16  MOL A   1       4.969 -21.541  -8.568  1.00  0.00     0.064 C 
ATOM     28 C17  MOL A   1       3.576 -21.331  -8.009  1.00  0.00     0.272 C 
ATOM     29 F18  MOL A   1       3.095 -22.413  -7.293  1.00  0.00    -0.204 F 
ATOM     30 F19  MOL A   1       2.675 -20.824  -8.932  1.00  0.00    -0.204 F 
ATOM     31 C20  MOL A   1       4.210 -20.264  -7.139  1.00  0.00     0.064 C 
ENDBRANCH  25  26
ENDBRANCH  20  25
BRANCH  24  32
ATOM     32 O25  MOL A   1       9.800 -18.582 -11.637  1.00  0.00    -0.493 OA
ATOM     33 C26  MOL A   1      11.024 -18.912 -12.286  1.00  0.00     0.078 C 
ENDBRANCH  24  32
ENDBRANCH  18  19
ENDBRANCH  17  18
ENDBRANCH  15  17
ENDBRANCH   8  14
ENDBRANCH   1   8
TORSDOF 10
ENDMDL
MODEL 216
REMARK VINA RESULT:    -7.342      5.833     10.146
REMARK INTER + INTRA:         -12.683
REMARK INTER:                 -11.582
REMARK INTRA:                  -1.101
REMARK UNBOUND:                -1.048
REMARK  10 active torsions:
REMARK  status: ('A' for Active; 'I' for Inactive)
REMARK   1   A    between atoms:  C27_1   and   C6_8  
REMARK   2   A    between atoms:  C6_8    and   C5_9  
REMARK   3   A    between atoms:  C5_9    and   C3_12 
REMARK   4   A    between atoms:  C6_8    and   N7_14 
REMARK   5   A    between atoms:  C8_15   and  C10_17 
REMARK   6   A    between atoms: C10_17   and  O11_18 
REMARK   7   A    between atoms: O11_18   and  C12_19 
REMARK   8   A    between atoms: C13_20   and  C14_25 
REMARK   9   A    between atoms: C14_25   and  N15_26 
REMARK   10  A    between atoms: C24_24   and  O25_32 
ROOT
ATOM      1 C27  MOL A   1       8.647 -18.645  -9.684  1.00  0.00    -0.024 A 
ATOM      2 C28  MOL A   1       8.639 -17.728  -8.617  1.00  0.00    -0.057 A 
ATOM      3 C29  MOL A   1       7.989 -16.496  -8.748  1.00  0.00    -0.061 A 
ATOM      4 C30  MOL A   1       7.342 -16.168  -9.942  1.00  0.00    -0.048 A 
ATOM      5 C31  MOL A   1       7.339 -17.073 -11.010  1.00  0.00     0.018 A 
ATOM      6 Br32 MOL A   1       6.433 -16.632 -12.636  1.00  0.00    -0.051 Br
ATOM      7 C33  MOL A   1       7.992 -18.303 -10.884  1.00  0.00    -0.043 A 
ENDROOT
BRANCH   1   8
ATOM      8  C6  MOL A   1       9.414 -19.944  -9.560  1.00  0.00     0.063 C 
BRANCH   8   9
ATOM      9  C5  MOL A   1       8.655 -20.919  -8.641  1.00  0.00     0.051 C 
BRANCH   9  12
ATOM     10  C1  MOL A   1       5.208 -21.890 -10.174  1.00  0.00     0.006 C 
ATOM     11  N2  MOL A   1       6.253 -21.186  -9.445  1.00  0.00    -0.359 N 
ATOM     12  C3  MOL A   1       7.598 -21.674  -9.393  1.00  0.00     0.222 C 
ATOM     13  O4  MOL A   1       7.905 -22.745  -9.985  1.00  0.00    -0.275 OA
ENDBRANCH   9  12
ENDBRANCH   8   9
BRANCH   8  14
ATOM     14  N7  MOL A   1      10.762 -19.691  -9.042  1.00  0.00    -0.346 N 
ATOM     15  C8  MOL A   1      11.767 -19.022  -9.807  1.00  0.00     0.258 C 
ATOM     16  O9  MOL A   1      11.518 -18.632 -10.979  1.00  0.00    -0.271 OA
BRANCH  15  17
ATOM     17 C10  MOL A   1      13.122 -18.765  -9.220  1.00  0.00     0.167 C 
BRANCH  17  18
ATOM     18 O11  MOL A   1      13.164 -19.186  -7.859  1.00  0.00    -0.480 OA
BRANCH  18  19
ATOM     19 C12  MOL A   1      14.334 -19.672  -7.269  1.00  0.00     0.166 A 
ATOM     20 C13  MOL A   1      15.423 -18.815  -6.991  1.00  0.00     0.012 A 
ATOM     21 C21  MOL A   1      16.548 -19.330  -6.325  1.00  0.00    -0.054 A 
ATOM     22 C22  MOL A   1      16.612 -20.681  -5.985  1.00  0.00    -0.058 A 
ATOM     23 C23  MOL A   1      15.557 -21.536  -6.305  1.00  0.00    -0.016 A 
ATOM     24 C24  MOL A   1      14.411 -21.039  -6.953  1.00  0.00     0.161 A 
BRANCH  20  25
ATOM     25 C14  MOL A   1      15.412 -17.357  -7.393  1.00  0.00     0.028 C 
BRANCH  25  26
ATOM     26 N15  MOL A   1      14.686 -16.551  -6.390  1.00  0.00    -0.287 NA
ATOM     27 C16  MOL A   1      13.567 -15.810  -6.997  1.00  0.00     0.064 C 
ATOM     28 C17  MOL A   1      14.215 -14.466  -6.727  1.00  0.00     0.272 C 
ATOM     29 F18  MOL A   1      13.530 -13.695  -5.804  1.00  0.00    -0.204 F 
ATOM     30 F19  MOL A   1      14.574 -13.780  -7.875  1.00  0.00    -0.204 F 
ATOM     31 C20  MOL A   1      15.353 -15.265  -6.122  1.00  0.00     0.064 C 
ENDBRANCH  25  26
ENDBRANCH  20  25
BRANCH  24  32
ATOM     32 O25  MOL A   1      13.330 -21.864  -7.293  1.00  0.00    -0.493 OA
ATOM     33 C26  MOL A   1      12.984 -23.063  -6.607  1.00  0.00     0.078 C 
ENDBRANCH  24  32
ENDBRANCH  18  19
ENDBRANCH  17  18
ENDBRANCH  15  17
ENDBRANCH   8  14
ENDBRANCH   1   8
TORSDOF 10
ENDMDL
MODEL 217
REMARK VINA RESULT:    -7.338      4.035      8.168
REMARK INTER + INTRA:         -12.676
REMARK INTER:                 -12.548
REMARK INTRA:                  -0.127
REMARK UNBOUND:                -1.048
REMARK  10 active torsions:
REMARK  status: ('A' for Active; 'I' for Inactive)
REMARK   1   A    between atoms:  C27_1   and   C6_8  
REMARK   2   A    between atoms:  C6_8    and   C5_9  
REMARK   3   A    between atoms:  C5_9    and   C3_12 
REMARK   4   A    between atoms:  C6_8    and   N7_14 
REMARK   5   A    between atoms:  C8_15   and  C10_17 
REMARK   6   A    between atoms: C10_17   and  O11_18 
REMARK   7   A    between atoms: O11_18   and  C12_19 
REMARK   8   A    between atoms: C13_20   and  C14_25 
REMARK   9   A    between atoms: C14_25   and  N15_26 
REMARK   10  A    between atoms: C24_24   and  O25_32 
ROOT
ATOM      1 C27  MOL A   1       5.271 -14.460 -11.276  1.00  0.00    -0.024 A 
ATOM      2 C28  MOL A   1       5.418 -13.270 -12.011  1.00  0.00    -0.057 A 
ATOM      3 C29  MOL A   1       4.409 -12.301 -12.000  1.00  0.00    -0.061 A 
ATOM      4 C30  MOL A   1       3.244 -12.511 -11.257  1.00  0.00    -0.048 A 
ATOM      5 C31  MOL A   1       3.086 -13.689 -10.518  1.00  0.00     0.018 A 
ATOM      6 Br32 MOL A   1       1.500 -13.966  -9.484  1.00  0.00    -0.051 Br
ATOM      7 C33  MOL A   1       4.091 -14.662 -10.531  1.00  0.00    -0.043 A 
ENDROOT
BRANCH   1   8
ATOM      8  C6  MOL A   1       6.335 -15.533 -11.351  1.00  0.00     0.063 C 
BRANCH   8   9
ATOM      9  C5  MOL A   1       6.273 -16.243 -12.715  1.00  0.00     0.051 C 
BRANCH   9  12
ATOM     10  C1  MOL A   1       7.836 -19.715 -11.896  1.00  0.00     0.006 C 
ATOM     11  N2  MOL A   1       6.976 -18.541 -11.872  1.00  0.00    -0.359 N 
ATOM     12  C3  MOL A   1       7.184 -17.435 -12.758  1.00  0.00     0.222 C 
ATOM     13  O4  MOL A   1       8.136 -17.458 -13.585  1.00  0.00    -0.275 OA
ENDBRANCH   9  12
ENDBRANCH   8   9
BRANCH   8  14
ATOM     14  N7  MOL A   1       6.162 -16.497 -10.259  1.00  0.00    -0.346 N 
ATOM     15  C8  MOL A   1       7.189 -16.768  -9.302  1.00  0.00     0.258 C 
ATOM     16  O9  MOL A   1       8.299 -16.178  -9.378  1.00  0.00    -0.271 OA
BRANCH  15  17
ATOM     17 C10  MOL A   1       6.950 -17.744  -8.189  1.00  0.00     0.167 C 
BRANCH  17  18
ATOM     18 O11  MOL A   1       8.150 -18.448  -7.878  1.00  0.00    -0.480 OA
BRANCH  18  19
ATOM     19 C12  MOL A   1       8.407 -19.730  -8.370  1.00  0.00     0.166 A 
ATOM     20 C13  MOL A   1       7.393 -20.715  -8.410  1.00  0.00     0.012 A 
ATOM     21 C21  MOL A   1       7.673 -21.965  -8.986  1.00  0.00    -0.054 A 
ATOM     22 C22  MOL A   1       8.950 -22.251  -9.470  1.00  0.00    -0.058 A 
ATOM     23 C23  MOL A   1       9.963 -21.295  -9.384  1.00  0.00    -0.016 A 
ATOM     24 C24  MOL A   1       9.700 -20.029  -8.829  1.00  0.00     0.161 A 
BRANCH  20  25
ATOM     25 C14  MOL A   1       6.012 -20.459  -7.847  1.00  0.00     0.028 C 
BRANCH  25  26
ATOM     26 N15  MOL A   1       5.162 -21.658  -8.001  1.00  0.00    -0.287 NA
ATOM     27 C16  MOL A   1       4.064 -21.425  -8.955  1.00  0.00     0.064 C 
ATOM     28 C17  MOL A   1       3.005 -21.549  -7.878  1.00  0.00     0.272 C 
ATOM     29 F18  MOL A   1       2.190 -22.658  -8.026  1.00  0.00    -0.204 F 
ATOM     30 F19  MOL A   1       2.313 -20.373  -7.637  1.00  0.00    -0.204 F 
ATOM     31 C20  MOL A   1       4.163 -21.773  -6.925  1.00  0.00     0.064 C 
ENDBRANCH  25  26
ENDBRANCH  20  25
BRANCH  24  32
ATOM     32 O25  MOL A   1      10.690 -19.042  -8.724  1.00  0.00    -0.493 OA
ATOM     33 C26  MOL A   1      11.698 -18.803  -9.701  1.00  0.00     0.078 C 
ENDBRANCH  24  32
ENDBRANCH  18  19
ENDBRANCH  17  18
ENDBRANCH  15  17
ENDBRANCH   8  14
ENDBRANCH   1   8
TORSDOF 10
ENDMDL
MODEL 218
REMARK VINA RESULT:    -7.337      5.760     10.298
REMARK INTER + INTRA:         -12.675
REMARK INTER:                 -11.307
REMARK INTRA:                  -1.368
REMARK UNBOUND:                -1.048
REMARK  10 active torsions:
REMARK  status: ('A' for Active; 'I' for Inactive)
REMARK   1   A    between atoms:  C27_1   and   C6_8  
REMARK   2   A    between atoms:  C6_8    and   C5_9  
REMARK   3   A    between atoms:  C5_9    and   C3_12 
REMARK   4   A    between atoms:  C6_8    and   N7_14 
REMARK   5   A    between atoms:  C8_15   and  C10_17 
REMARK   6   A    between atoms: C10_17   and  O11_18 
REMARK   7   A    between atoms: O11_18   and  C12_19 
REMARK   8   A    between atoms: C13_20   and  C14_25 
REMARK   9   A    between atoms: C14_25   and  N15_26 
REMARK   10  A    between atoms: C24_24   and  O25_32 
ROOT
ATOM      1 C27  MOL A   1       8.422 -18.659  -9.648  1.00  0.00    -0.024 A 
ATOM      2 C28  MOL A   1       8.108 -17.815  -8.567  1.00  0.00    -0.057 A 
ATOM      3 C29  MOL A   1       7.358 -16.652  -8.772  1.00  0.00    -0.061 A 
ATOM      4 C30  MOL A   1       6.915 -16.321 -10.056  1.00  0.00    -0.048 A 
ATOM      5 C31  MOL A   1       7.218 -17.153 -11.139  1.00  0.00     0.018 A 
ATOM      6 Br32 MOL A   1       6.592 -16.710 -12.892  1.00  0.00    -0.051 Br
ATOM      7 C33  MOL A   1       7.972 -18.314 -10.938  1.00  0.00    -0.043 A 
ENDROOT
BRANCH   1   8
ATOM      8  C6  MOL A   1       9.295 -19.876  -9.429  1.00  0.00     0.063 C 
BRANCH   8   9
ATOM      9  C5  MOL A   1       8.539 -20.924  -8.591  1.00  0.00     0.051 C 
BRANCH   9  12
ATOM     10  C1  MOL A   1       5.093 -21.897 -10.125  1.00  0.00     0.006 C 
ATOM     11  N2  MOL A   1       6.124 -21.235  -9.338  1.00  0.00    -0.359 N 
ATOM     12  C3  MOL A   1       7.498 -21.633  -9.407  1.00  0.00     0.222 C 
ATOM     13  O4  MOL A   1       7.843 -22.585 -10.159  1.00  0.00    -0.275 OA
ENDBRANCH   9  12
ENDBRANCH   8   9
BRANCH   8  14
ATOM     14  N7  MOL A   1      10.547 -19.492  -8.768  1.00  0.00    -0.346 N 
ATOM     15  C8  MOL A   1      11.634 -18.888  -9.471  1.00  0.00     0.258 C 
ATOM     16  O9  MOL A   1      11.549 -18.674 -10.710  1.00  0.00    -0.271 OA
BRANCH  15  17
ATOM     17 C10  MOL A   1      12.882 -18.490  -8.742  1.00  0.00     0.167 C 
BRANCH  17  18
ATOM     18 O11  MOL A   1      12.931 -19.114  -7.461  1.00  0.00    -0.480 OA
BRANCH  18  19
ATOM     19 C12  MOL A   1      14.119 -19.621  -6.928  1.00  0.00     0.166 A 
ATOM     20 C13  MOL A   1      14.978 -18.808  -6.151  1.00  0.00     0.012 A 
ATOM     21 C21  MOL A   1      16.121 -19.380  -5.570  1.00  0.00    -0.054 A 
ATOM     22 C22  MOL A   1      16.435 -20.721  -5.793  1.00  0.00    -0.058 A 
ATOM     23 C23  MOL A   1      15.613 -21.508  -6.601  1.00  0.00    -0.016 A 
ATOM     24 C24  MOL A   1      14.451 -20.962  -7.178  1.00  0.00     0.161 A 
BRANCH  20  25
ATOM     25 C14  MOL A   1      14.699 -17.338  -5.931  1.00  0.00     0.028 C 
BRANCH  25  26
ATOM     26 N15  MOL A   1      15.833 -16.521  -6.408  1.00  0.00    -0.287 NA
ATOM     27 C16  MOL A   1      15.530 -15.081  -6.340  1.00  0.00     0.064 C 
ATOM     28 C17  MOL A   1      15.566 -14.929  -7.848  1.00  0.00     0.272 C 
ATOM     29 F18  MOL A   1      16.613 -14.147  -8.303  1.00  0.00    -0.204 F 
ATOM     30 F19  MOL A   1      14.340 -14.603  -8.405  1.00  0.00    -0.204 F 
ATOM     31 C20  MOL A   1      15.863 -16.415  -7.877  1.00  0.00     0.064 C 
ENDBRANCH  25  26
ENDBRANCH  20  25
BRANCH  24  32
ATOM     32 O25  MOL A   1      13.600 -21.718  -7.997  1.00  0.00    -0.493 OA
ATOM     33 C26  MOL A   1      12.383 -22.316  -7.560  1.00  0.00     0.078 C 
ENDBRANCH  24  32
ENDBRANCH  18  19
ENDBRANCH  17  18
ENDBRANCH  15  17
ENDBRANCH   8  14
ENDBRANCH   1   8
TORSDOF 10
ENDMDL
MODEL 219
REMARK VINA RESULT:    -7.334      2.572      4.023
REMARK INTER + INTRA:         -12.669
REMARK INTER:                 -11.931
REMARK INTRA:                  -0.738
REMARK UNBOUND:                -1.048
REMARK  10 active torsions:
REMARK  status: ('A' for Active; 'I' for Inactive)
REMARK   1   A    between atoms:  C27_1   and   C6_8  
REMARK   2   A    between atoms:  C6_8    and   C5_9  
REMARK   3   A    between atoms:  C5_9    and   C3_12 
REMARK   4   A    between atoms:  C6_8    and   N7_14 
REMARK   5   A    between atoms:  C8_15   and  C10_17 
REMARK   6   A    between atoms: C10_17   and  O11_18 
REMARK   7   A    between atoms: O11_18   and  C12_19 
REMARK   8   A    between atoms: C13_20   and  C14_25 
REMARK   9   A    between atoms: C14_25   and  N15_26 
REMARK   10  A    between atoms: C24_24   and  O25_32 
ROOT
ATOM      1 C27  MOL A   1      10.545 -18.050  -9.015  1.00  0.00    -0.024 A 
ATOM      2 C28  MOL A   1      11.725 -18.433  -9.678  1.00  0.00    -0.057 A 
ATOM      3 C29  MOL A   1      12.968 -17.964  -9.237  1.00  0.00    -0.061 A 
ATOM      4 C30  MOL A   1      13.044 -17.110  -8.133  1.00  0.00    -0.048 A 
ATOM      5 C31  MOL A   1      11.877 -16.724  -7.463  1.00  0.00     0.018 A 
ATOM      6 Br32 MOL A   1      11.984 -15.573  -5.939  1.00  0.00    -0.051 Br
ATOM      7 C33  MOL A   1      10.633 -17.187  -7.904  1.00  0.00    -0.043 A 
ENDROOT
BRANCH   1   8
ATOM      8  C6  MOL A   1       9.200 -18.503  -9.542  1.00  0.00     0.063 C 
BRANCH   8   9
ATOM      9  C5  MOL A   1       9.394 -19.423 -10.761  1.00  0.00     0.051 C 
BRANCH   9  12
ATOM     10  C1  MOL A   1       9.176 -23.164  -9.696  1.00  0.00     0.006 C 
ATOM     11  N2  MOL A   1       9.681 -21.825  -9.963  1.00  0.00    -0.359 N 
ATOM     12  C3  MOL A   1       8.845 -20.797 -10.506  1.00  0.00     0.222 C 
ATOM     13  O4  MOL A   1       7.636 -21.040 -10.772  1.00  0.00    -0.275 OA
ENDBRANCH   9  12
ENDBRANCH   8   9
BRANCH   8  14
ATOM     14  N7  MOL A   1       8.376 -17.343  -9.896  1.00  0.00    -0.346 N 
ATOM     15  C8  MOL A   1       6.947 -17.380  -9.879  1.00  0.00     0.258 C 
ATOM     16  O9  MOL A   1       6.343 -18.439  -9.561  1.00  0.00    -0.271 OA
BRANCH  15  17
ATOM     17 C10  MOL A   1       6.153 -16.157 -10.225  1.00  0.00     0.167 C 
BRANCH  17  18
ATOM     18 O11  MOL A   1       5.706 -15.500  -9.041  1.00  0.00    -0.480 OA
BRANCH  18  19
ATOM     19 C12  MOL A   1       4.358 -15.208  -8.819  1.00  0.00     0.166 A 
ATOM     20 C13  MOL A   1       3.628 -14.396  -9.717  1.00  0.00     0.012 A 
ATOM     21 C21  MOL A   1       2.255 -14.194  -9.497  1.00  0.00    -0.054 A 
ATOM     22 C22  MOL A   1       1.628 -14.747  -8.381  1.00  0.00    -0.058 A 
ATOM     23 C23  MOL A   1       2.361 -15.506  -7.469  1.00  0.00    -0.016 A 
ATOM     24 C24  MOL A   1       3.733 -15.739  -7.679  1.00  0.00     0.161 A 
BRANCH  20  25
ATOM     25 C14  MOL A   1       4.285 -13.737 -10.909  1.00  0.00     0.028 C 
BRANCH  25  26
ATOM     26 N15  MOL A   1       3.361 -12.771 -11.539  1.00  0.00    -0.287 NA
ATOM     27 C16  MOL A   1       3.078 -13.127 -12.940  1.00  0.00     0.064 C 
ATOM     28 C17  MOL A   1       3.776 -11.891 -13.472  1.00  0.00     0.272 C 
ATOM     29 F18  MOL A   1       2.921 -10.990 -14.082  1.00  0.00    -0.204 F 
ATOM     30 F19  MOL A   1       4.918 -12.168 -14.206  1.00  0.00    -0.204 F 
ATOM     31 C20  MOL A   1       4.059 -11.566 -12.018  1.00  0.00     0.064 C 
ENDBRANCH  25  26
ENDBRANCH  20  25
BRANCH  24  32
ATOM     32 O25  MOL A   1       4.505 -16.496  -6.786  1.00  0.00    -0.493 OA
ATOM     33 C26  MOL A   1       4.780 -17.885  -6.935  1.00  0.00     0.078 C 
ENDBRANCH  24  32
ENDBRANCH  18  19
ENDBRANCH  17  18
ENDBRANCH  15  17
ENDBRANCH   8  14
ENDBRANCH   1   8
TORSDOF 10
ENDMDL
MODEL 220
REMARK VINA RESULT:    -7.333      6.735     12.042
REMARK INTER + INTRA:         -12.668
REMARK INTER:                 -10.535
REMARK INTRA:                  -2.134
REMARK UNBOUND:                -1.048
REMARK  10 active torsions:
REMARK  status: ('A' for Active; 'I' for Inactive)
REMARK   1   A    between atoms:  C27_1   and   C6_8  
REMARK   2   A    between atoms:  C6_8    and   C5_9  
REMARK   3   A    between atoms:  C5_9    and   C3_12 
REMARK   4   A    between atoms:  C6_8    and   N7_14 
REMARK   5   A    between atoms:  C8_15   and  C10_17 
REMARK   6   A    between atoms: C10_17   and  O11_18 
REMARK   7   A    between atoms: O11_18   and  C12_19 
REMARK   8   A    between atoms: C13_20   and  C14_25 
REMARK   9   A    between atoms: C14_25   and  N15_26 
REMARK   10  A    between atoms: C24_24   and  O25_32 
ROOT
ATOM      1 C27  MOL A   1      13.548 -19.208  -7.053  1.00  0.00    -0.024 A 
ATOM      2 C28  MOL A   1      14.581 -19.258  -6.100  1.00  0.00    -0.057 A 
ATOM      3 C29  MOL A   1      15.064 -20.489  -5.644  1.00  0.00    -0.061 A 
ATOM      4 C30  MOL A   1      14.521 -21.680  -6.134  1.00  0.00    -0.048 A 
ATOM      5 C31  MOL A   1      13.495 -21.644  -7.085  1.00  0.00     0.018 A 
ATOM      6 Br32 MOL A   1      12.767 -23.275  -7.771  1.00  0.00    -0.051 Br
ATOM      7 C33  MOL A   1      13.006 -20.415  -7.538  1.00  0.00    -0.043 A 
ENDROOT
BRANCH   1   8
ATOM      8  C6  MOL A   1      12.981 -17.873  -7.486  1.00  0.00     0.063 C 
BRANCH   8   9
ATOM      9  C5  MOL A   1      11.867 -18.085  -8.526  1.00  0.00     0.051 C 
BRANCH   9  12
ATOM     10  C1  MOL A   1       8.232 -16.691  -8.658  1.00  0.00     0.006 C 
ATOM     11  N2  MOL A   1       9.456 -17.407  -8.989  1.00  0.00    -0.359 N 
ATOM     12  C3  MOL A   1      10.623 -17.326  -8.164  1.00  0.00     0.222 C 
ATOM     13  O4  MOL A   1      10.613 -16.617  -7.121  1.00  0.00    -0.275 OA
ENDBRANCH   9  12
ENDBRANCH   8   9
BRANCH   8  14
ATOM     14  N7  MOL A   1      14.045 -17.023  -8.034  1.00  0.00    -0.346 N 
ATOM     15  C8  MOL A   1      14.349 -15.732  -7.502  1.00  0.00     0.258 C 
ATOM     16  O9  MOL A   1      13.690 -15.274  -6.532  1.00  0.00    -0.271 OA
BRANCH  15  17
ATOM     17 C10  MOL A   1      15.464 -14.916  -8.084  1.00  0.00     0.167 C 
BRANCH  17  18
ATOM     18 O11  MOL A   1      16.589 -14.912  -7.208  1.00  0.00    -0.480 OA
BRANCH  18  19
ATOM     19 C12  MOL A   1      17.159 -16.093  -6.728  1.00  0.00     0.166 A 
ATOM     20 C13  MOL A   1      17.287 -16.333  -5.340  1.00  0.00     0.012 A 
ATOM     21 C21  MOL A   1      17.793 -17.567  -4.901  1.00  0.00    -0.054 A 
ATOM     22 C22  MOL A   1      18.211 -18.528  -5.822  1.00  0.00    -0.058 A 
ATOM     23 C23  MOL A   1      18.132 -18.270  -7.190  1.00  0.00    -0.016 A 
ATOM     24 C24  MOL A   1      17.609 -17.049  -7.654  1.00  0.00     0.161 A 
BRANCH  20  25
ATOM     25 C14  MOL A   1      16.893 -15.294  -4.313  1.00  0.00     0.028 C 
BRANCH  25  26
ATOM     26 N15  MOL A   1      16.239 -15.936  -3.155  1.00  0.00    -0.287 NA
ATOM     27 C16  MOL A   1      14.772 -15.909  -3.278  1.00  0.00     0.064 C 
ATOM     28 C17  MOL A   1      14.616 -14.981  -2.089  1.00  0.00     0.272 C 
ATOM     29 F18  MOL A   1      13.985 -15.568  -1.006  1.00  0.00    -0.204 F 
ATOM     30 F19  MOL A   1      14.118 -13.731  -2.419  1.00  0.00    -0.204 F 
ATOM     31 C20  MOL A   1      16.129 -15.024  -2.003  1.00  0.00     0.064 C 
ENDBRANCH  25  26
ENDBRANCH  20  25
BRANCH  24  32
ATOM     32 O25  MOL A   1      17.513 -16.750  -9.021  1.00  0.00    -0.493 OA
ATOM     33 C26  MOL A   1      17.490 -17.724 -10.059  1.00  0.00     0.078 C 
ENDBRANCH  24  32
ENDBRANCH  18  19
ENDBRANCH  17  18
ENDBRANCH  15  17
ENDBRANCH   8  14
ENDBRANCH   1   8
TORSDOF 10
ENDMDL
MODEL 221
REMARK VINA RESULT:    -7.331      5.388     10.168
REMARK INTER + INTRA:         -12.665
REMARK INTER:                 -11.291
REMARK INTRA:                  -1.373
REMARK UNBOUND:                -1.048
REMARK  10 active torsions:
REMARK  status: ('A' for Active; 'I' for Inactive)
REMARK   1   A    between atoms:  C27_1   and   C6_8  
REMARK   2   A    between atoms:  C6_8    and   C5_9  
REMARK   3   A    between atoms:  C5_9    and   C3_12 
REMARK   4   A    between atoms:  C6_8    and   N7_14 
REMARK   5   A    between atoms:  C8_15   and  C10_17 
REMARK   6   A    between atoms: C10_17   and  O11_18 
REMARK   7   A    between atoms: O11_18   and  C12_19 
REMARK   8   A    between atoms: C13_20   and  C14_25 
REMARK   9   A    between atoms: C14_25   and  N15_26 
REMARK   10  A    between atoms: C24_24   and  O25_32 
ROOT
ATOM      1 C27  MOL A   1       6.513 -17.465  -8.815  1.00  0.00    -0.024 A 
ATOM      2 C28  MOL A   1       5.771 -17.344  -7.626  1.00  0.00    -0.057 A 
ATOM      3 C29  MOL A   1       4.814 -16.333  -7.490  1.00  0.00    -0.061 A 
ATOM      4 C30  MOL A   1       4.589 -15.434  -8.536  1.00  0.00    -0.048 A 
ATOM      5 C31  MOL A   1       5.318 -15.545  -9.725  1.00  0.00     0.018 A 
ATOM      6 Br32 MOL A   1       4.994 -14.328 -11.165  1.00  0.00    -0.051 Br
ATOM      7 C33  MOL A   1       6.280 -16.551  -9.863  1.00  0.00    -0.043 A 
ENDROOT
BRANCH   1   8
ATOM      8  C6  MOL A   1       7.597 -18.515  -8.927  1.00  0.00     0.063 C 
BRANCH   8   9
ATOM      9  C5  MOL A   1       7.123 -19.833  -8.288  1.00  0.00     0.051 C 
BRANCH   9  12
ATOM     10  C1  MOL A   1       7.002 -21.949 -11.557  1.00  0.00     0.006 C 
ATOM     11  N2  MOL A   1       7.413 -20.997 -10.535  1.00  0.00    -0.359 N 
ATOM     12  C3  MOL A   1       6.666 -20.815  -9.328  1.00  0.00     0.222 C 
ATOM     13  O4  MOL A   1       5.616 -21.485  -9.127  1.00  0.00    -0.275 OA
ENDBRANCH   9  12
ENDBRANCH   8   9
BRANCH   8  14
ATOM     14  N7  MOL A   1       8.829 -18.044  -8.286  1.00  0.00    -0.346 N 
ATOM     15  C8  MOL A   1      10.129 -18.369  -8.785  1.00  0.00     0.258 C 
ATOM     16  O9  MOL A   1      10.254 -19.094  -9.807  1.00  0.00    -0.271 OA
BRANCH  15  17
ATOM     17 C10  MOL A   1      11.356 -17.840  -8.105  1.00  0.00     0.167 C 
BRANCH  17  18
ATOM     18 O11  MOL A   1      12.464 -18.708  -8.328  1.00  0.00    -0.480 OA
BRANCH  18  19
ATOM     19 C12  MOL A   1      13.164 -19.303  -7.275  1.00  0.00     0.166 A 
ATOM     20 C13  MOL A   1      14.282 -18.666  -6.689  1.00  0.00     0.012 A 
ATOM     21 C21  MOL A   1      14.907 -19.261  -5.581  1.00  0.00    -0.054 A 
ATOM     22 C22  MOL A   1      14.463 -20.490  -5.094  1.00  0.00    -0.058 A 
ATOM     23 C23  MOL A   1      13.391 -21.141  -5.705  1.00  0.00    -0.016 A 
ATOM     24 C24  MOL A   1      12.736 -20.554  -6.804  1.00  0.00     0.161 A 
BRANCH  20  25
ATOM     25 C14  MOL A   1      14.825 -17.359  -7.224  1.00  0.00     0.028 C 
BRANCH  25  26
ATOM     26 N15  MOL A   1      15.928 -16.871  -6.370  1.00  0.00    -0.287 NA
ATOM     27 C16  MOL A   1      15.756 -15.449  -6.024  1.00  0.00     0.064 C 
ATOM     28 C17  MOL A   1      16.984 -15.034  -6.810  1.00  0.00     0.272 C 
ATOM     29 F18  MOL A   1      18.014 -14.556  -6.020  1.00  0.00    -0.204 F 
ATOM     30 F19  MOL A   1      16.700 -14.236  -7.907  1.00  0.00    -0.204 F 
ATOM     31 C20  MOL A   1      17.119 -16.505  -7.155  1.00  0.00     0.064 C 
ENDBRANCH  25  26
ENDBRANCH  20  25
BRANCH  24  32
ATOM     32 O25  MOL A   1      11.657 -21.176  -7.447  1.00  0.00    -0.493 OA
ATOM     33 C26  MOL A   1      11.752 -22.381  -8.199  1.00  0.00     0.078 C 
ENDBRANCH  24  32
ENDBRANCH  18  19
ENDBRANCH  17  18
ENDBRANCH  15  17
ENDBRANCH   8  14
ENDBRANCH   1   8
TORSDOF 10
ENDMDL
MODEL 222
REMARK VINA RESULT:    -7.329      7.790     13.201
REMARK INTER + INTRA:         -12.663
REMARK INTER:                 -10.506
REMARK INTRA:                  -2.157
REMARK UNBOUND:                -1.048
REMARK  10 active torsions:
REMARK  status: ('A' for Active; 'I' for Inactive)
REMARK   1   A    between atoms:  C27_1   and   C6_8  
REMARK   2   A    between atoms:  C6_8    and   C5_9  
REMARK   3   A    between atoms:  C5_9    and   C3_12 
REMARK   4   A    between atoms:  C6_8    and   N7_14 
REMARK   5   A    between atoms:  C8_15   and  C10_17 
REMARK   6   A    between atoms: C10_17   and  O11_18 
REMARK   7   A    between atoms: O11_18   and  C12_19 
REMARK   8   A    between atoms: C13_20   and  C14_25 
REMARK   9   A    between atoms: C14_25   and  N15_26 
REMARK   10  A    between atoms: C24_24   and  O25_32 
ROOT
ATOM      1 C27  MOL A   1      15.370 -17.939  -8.274  1.00  0.00    -0.024 A 
ATOM      2 C28  MOL A   1      15.872 -16.649  -8.022  1.00  0.00    -0.057 A 
ATOM      3 C29  MOL A   1      17.070 -16.229  -8.609  1.00  0.00    -0.061 A 
ATOM      4 C30  MOL A   1      17.779 -17.091  -9.451  1.00  0.00    -0.048 A 
ATOM      5 C31  MOL A   1      17.289 -18.375  -9.713  1.00  0.00     0.018 A 
ATOM      6 Br32 MOL A   1      18.248 -19.546 -10.883  1.00  0.00    -0.051 Br
ATOM      7 C33  MOL A   1      16.094 -18.801  -9.123  1.00  0.00    -0.043 A 
ENDROOT
BRANCH   1   8
ATOM      8  C6  MOL A   1      14.112 -18.411  -7.578  1.00  0.00     0.063 C 
BRANCH   8   9
ATOM      9  C5  MOL A   1      12.973 -17.400  -7.804  1.00  0.00     0.051 C 
BRANCH   9  12
ATOM     10  C1  MOL A   1       9.199 -17.977  -8.574  1.00  0.00     0.006 C 
ATOM     11  N2  MOL A   1      10.469 -17.337  -8.262  1.00  0.00    -0.359 N 
ATOM     12  C3  MOL A   1      11.677 -18.091  -8.116  1.00  0.00     0.222 C 
ATOM     13  O4  MOL A   1      11.662 -19.345  -8.253  1.00  0.00    -0.275 OA
ENDBRANCH   9  12
ENDBRANCH   8   9
BRANCH   8  14
ATOM     14  N7  MOL A   1      14.362 -18.595  -6.145  1.00  0.00    -0.346 N 
ATOM     15  C8  MOL A   1      14.763 -19.850  -5.589  1.00  0.00     0.258 C 
ATOM     16  O9  MOL A   1      14.905 -20.857  -6.331  1.00  0.00    -0.271 OA
BRANCH  15  17
ATOM     17 C10  MOL A   1      15.032 -19.976  -4.119  1.00  0.00     0.167 C 
BRANCH  17  18
ATOM     18 O11  MOL A   1      16.430 -19.889  -3.858  1.00  0.00    -0.480 OA
BRANCH  18  19
ATOM     19 C12  MOL A   1      17.199 -18.805  -4.291  1.00  0.00     0.166 A 
ATOM     20 C13  MOL A   1      17.083 -17.535  -3.679  1.00  0.00     0.012 A 
ATOM     21 C21  MOL A   1      17.931 -16.495  -4.093  1.00  0.00    -0.054 A 
ATOM     22 C22  MOL A   1      18.844 -16.695  -5.128  1.00  0.00    -0.058 A 
ATOM     23 C23  MOL A   1      18.921 -17.934  -5.765  1.00  0.00    -0.016 A 
ATOM     24 C24  MOL A   1      18.096 -18.997  -5.354  1.00  0.00     0.161 A 
BRANCH  20  25
ATOM     25 C14  MOL A   1      16.068 -17.266  -2.590  1.00  0.00     0.028 C 
BRANCH  25  26
ATOM     26 N15  MOL A   1      15.707 -15.834  -2.564  1.00  0.00    -0.287 NA
ATOM     27 C16  MOL A   1      15.997 -15.226  -1.254  1.00  0.00     0.064 C 
ATOM     28 C17  MOL A   1      14.530 -14.984  -0.960  1.00  0.00     0.272 C 
ATOM     29 F18  MOL A   1      14.186 -13.644  -0.913  1.00  0.00    -0.204 F 
ATOM     30 F19  MOL A   1      14.045 -15.725   0.106  1.00  0.00    -0.204 F 
ATOM     31 C20  MOL A   1      14.271 -15.627  -2.308  1.00  0.00     0.064 C 
ENDBRANCH  25  26
ENDBRANCH  20  25
BRANCH  24  32
ATOM     32 O25  MOL A   1      18.142 -20.257  -5.968  1.00  0.00    -0.493 OA
ATOM     33 C26  MOL A   1      18.880 -20.551  -7.150  1.00  0.00     0.078 C 
ENDBRANCH  24  32
ENDBRANCH  18  19
ENDBRANCH  17  18
ENDBRANCH  15  17
ENDBRANCH   8  14
ENDBRANCH   1   8
TORSDOF 10
ENDMDL
MODEL 223
REMARK VINA RESULT:    -7.325      4.753      9.975
REMARK INTER + INTRA:         -12.656
REMARK INTER:                 -11.210
REMARK INTRA:                  -1.446
REMARK UNBOUND:                -1.048
REMARK  10 active torsions:
REMARK  status: ('A' for Active; 'I' for Inactive)
REMARK   1   A    between atoms:  C27_1   and   C6_8  
REMARK   2   A    between atoms:  C6_8    and   C5_9  
REMARK   3   A    between atoms:  C5_9    and   C3_12 
REMARK   4   A    between atoms:  C6_8    and   N7_14 
REMARK   5   A    between atoms:  C8_15   and  C10_17 
REMARK   6   A    between atoms: C10_17   and  O11_18 
REMARK   7   A    between atoms: O11_18   and  C12_19 
REMARK   8   A    between atoms: C13_20   and  C14_25 
REMARK   9   A    between atoms: C14_25   and  N15_26 
REMARK   10  A    between atoms: C24_24   and  O25_32 
ROOT
ATOM      1 C27  MOL A   1       8.180 -20.248  -9.940  1.00  0.00    -0.024 A 
ATOM      2 C28  MOL A   1       6.813 -20.443 -10.208  1.00  0.00    -0.057 A 
ATOM      3 C29  MOL A   1       6.296 -21.736 -10.342  1.00  0.00    -0.061 A 
ATOM      4 C30  MOL A   1       7.137 -22.845 -10.210  1.00  0.00    -0.048 A 
ATOM      5 C31  MOL A   1       8.498 -22.665  -9.940  1.00  0.00     0.018 A 
ATOM      6 Br32 MOL A   1       9.644 -24.183  -9.739  1.00  0.00    -0.051 Br
ATOM      7 C33  MOL A   1       9.019 -21.373  -9.811  1.00  0.00    -0.043 A 
ENDROOT
BRANCH   1   8
ATOM      8  C6  MOL A   1       8.745 -18.846  -9.868  1.00  0.00     0.063 C 
BRANCH   8   9
ATOM      9  C5  MOL A   1       8.376 -18.063 -11.141  1.00  0.00     0.051 C 
BRANCH   9  12
ATOM     10  C1  MOL A   1       5.820 -15.141 -11.466  1.00  0.00     0.006 C 
ATOM     11  N2  MOL A   1       6.618 -16.325 -11.754  1.00  0.00    -0.359 N 
ATOM     12  C3  MOL A   1       7.576 -16.834 -10.819  1.00  0.00     0.222 C 
ATOM     13  O4  MOL A   1       7.752 -16.253  -9.714  1.00  0.00    -0.275 OA
ENDBRANCH   9  12
ENDBRANCH   8   9
BRANCH   8  14
ATOM     14  N7  MOL A   1      10.201 -18.893  -9.695  1.00  0.00    -0.346 N 
ATOM     15  C8  MOL A   1      10.875 -18.181  -8.654  1.00  0.00     0.258 C 
ATOM     16  O9  MOL A   1      10.222 -17.469  -7.845  1.00  0.00    -0.271 OA
BRANCH  15  17
ATOM     17 C10  MOL A   1      12.363 -18.285  -8.506  1.00  0.00     0.167 C 
BRANCH  17  18
ATOM     18 O11  MOL A   1      12.705 -18.709  -7.188  1.00  0.00    -0.480 OA
BRANCH  18  19
ATOM     19 C12  MOL A   1      13.877 -19.419  -6.919  1.00  0.00     0.166 A 
ATOM     20 C13  MOL A   1      14.973 -18.804  -6.271  1.00  0.00     0.012 A 
ATOM     21 C21  MOL A   1      16.101 -19.577  -5.950  1.00  0.00    -0.054 A 
ATOM     22 C22  MOL A   1      16.162 -20.924  -6.307  1.00  0.00    -0.058 A 
ATOM     23 C23  MOL A   1      15.100 -21.517  -6.991  1.00  0.00    -0.016 A 
ATOM     24 C24  MOL A   1      13.951 -20.768  -7.306  1.00  0.00     0.161 A 
BRANCH  20  25
ATOM     25 C14  MOL A   1      14.965 -17.334  -5.916  1.00  0.00     0.028 C 
BRANCH  25  26
ATOM     26 N15  MOL A   1      16.011 -16.615  -6.672  1.00  0.00    -0.287 NA
ATOM     27 C16  MOL A   1      16.077 -15.194  -6.288  1.00  0.00     0.064 C 
ATOM     28 C17  MOL A   1      15.615 -14.728  -7.655  1.00  0.00     0.272 C 
ATOM     29 F18  MOL A   1      16.582 -14.036  -8.362  1.00  0.00    -0.204 F 
ATOM     30 F19  MOL A   1      14.376 -14.108  -7.643  1.00  0.00    -0.204 F 
ATOM     31 C20  MOL A   1      15.547 -16.202  -8.007  1.00  0.00     0.064 C 
ENDBRANCH  25  26
ENDBRANCH  20  25
BRANCH  24  32
ATOM     32 O25  MOL A   1      12.863 -21.325  -7.993  1.00  0.00    -0.493 OA
ATOM     33 C26  MOL A   1      11.970 -22.287  -7.442  1.00  0.00     0.078 C 
ENDBRANCH  24  32
ENDBRANCH  18  19
ENDBRANCH  17  18
ENDBRANCH  15  17
ENDBRANCH   8  14
ENDBRANCH   1   8
TORSDOF 10
ENDMDL
MODEL 224
REMARK VINA RESULT:    -7.324      6.461      9.657
REMARK INTER + INTRA:         -12.653
REMARK INTER:                 -11.090
REMARK INTRA:                  -1.564
REMARK UNBOUND:                -1.048
REMARK  10 active torsions:
REMARK  status: ('A' for Active; 'I' for Inactive)
REMARK   1   A    between atoms:  C27_1   and   C6_8  
REMARK   2   A    between atoms:  C6_8    and   C5_9  
REMARK   3   A    between atoms:  C5_9    and   C3_12 
REMARK   4   A    between atoms:  C6_8    and   N7_14 
REMARK   5   A    between atoms:  C8_15   and  C10_17 
REMARK   6   A    between atoms: C10_17   and  O11_18 
REMARK   7   A    between atoms: O11_18   and  C12_19 
REMARK   8   A    between atoms: C13_20   and  C14_25 
REMARK   9   A    between atoms: C14_25   and  N15_26 
REMARK   10  A    between atoms: C24_24   and  O25_32 
ROOT
ATOM      1 C27  MOL A   1      15.643 -17.970  -7.371  1.00  0.00    -0.024 A 
ATOM      2 C28  MOL A   1      16.082 -17.211  -8.471  1.00  0.00    -0.057 A 
ATOM      3 C29  MOL A   1      16.426 -15.864  -8.309  1.00  0.00    -0.061 A 
ATOM      4 C30  MOL A   1      16.335 -15.263  -7.051  1.00  0.00    -0.048 A 
ATOM      5 C31  MOL A   1      15.902 -16.008  -5.948  1.00  0.00     0.018 A 
ATOM      6 Br32 MOL A   1      15.798 -15.190  -4.222  1.00  0.00    -0.051 Br
ATOM      7 C33  MOL A   1      15.553 -17.353  -6.107  1.00  0.00    -0.043 A 
ENDROOT
BRANCH   1   8
ATOM      8  C6  MOL A   1      15.204 -19.405  -7.568  1.00  0.00     0.063 C 
BRANCH   8   9
ATOM      9  C5  MOL A   1      15.921 -20.013  -8.786  1.00  0.00     0.051 C 
BRANCH   9  12
ATOM     10  C1  MOL A   1      18.163 -22.990  -7.652  1.00  0.00     0.006 C 
ATOM     11  N2  MOL A   1      17.009 -22.193  -8.044  1.00  0.00    -0.359 N 
ATOM     12  C3  MOL A   1      17.129 -20.805  -8.376  1.00  0.00     0.222 C 
ATOM     13  O4  MOL A   1      18.254 -20.238  -8.328  1.00  0.00    -0.275 OA
ENDBRANCH   9  12
ENDBRANCH   8   9
BRANCH   8  14
ATOM     14  N7  MOL A   1      13.749 -19.472  -7.738  1.00  0.00    -0.346 N 
ATOM     15  C8  MOL A   1      12.899 -20.172  -6.826  1.00  0.00     0.258 C 
ATOM     16  O9  MOL A   1      13.390 -20.772  -5.834  1.00  0.00    -0.271 OA
BRANCH  15  17
ATOM     17 C10  MOL A   1      11.414 -20.187  -7.033  1.00  0.00     0.167 C 
BRANCH  17  18
ATOM     18 O11  MOL A   1      11.071 -19.506  -8.238  1.00  0.00    -0.480 OA
BRANCH  18  19
ATOM     19 C12  MOL A   1      10.048 -18.557  -8.287  1.00  0.00     0.166 A 
ATOM     20 C13  MOL A   1       8.729 -18.921  -8.642  1.00  0.00     0.012 A 
ATOM     21 C21  MOL A   1       7.715 -17.950  -8.602  1.00  0.00    -0.054 A 
ATOM     22 C22  MOL A   1       8.012 -16.630  -8.262  1.00  0.00    -0.058 A 
ATOM     23 C23  MOL A   1       9.323 -16.262  -7.960  1.00  0.00    -0.016 A 
ATOM     24 C24  MOL A   1      10.352 -17.221  -7.975  1.00  0.00     0.161 A 
BRANCH  20  25
ATOM     25 C14  MOL A   1       8.379 -20.330  -9.068  1.00  0.00     0.028 C 
BRANCH  25  26
ATOM     26 N15  MOL A   1       6.926 -20.451  -9.305  1.00  0.00    -0.287 NA
ATOM     27 C16  MOL A   1       6.406 -21.747  -8.836  1.00  0.00     0.064 C 
ATOM     28 C17  MOL A   1       6.065 -22.202 -10.241  1.00  0.00     0.272 C 
ATOM     29 F18  MOL A   1       4.707 -22.339 -10.467  1.00  0.00    -0.204 F 
ATOM     30 F19  MOL A   1       6.818 -23.281 -10.676  1.00  0.00    -0.204 F 
ATOM     31 C20  MOL A   1       6.620 -20.863 -10.686  1.00  0.00     0.064 C 
ENDBRANCH  25  26
ENDBRANCH  20  25
BRANCH  24  32
ATOM     32 O25  MOL A   1      11.683 -16.892  -7.679  1.00  0.00    -0.493 OA
ATOM     33 C26  MOL A   1      12.081 -16.004  -6.640  1.00  0.00     0.078 C 
ENDBRANCH  24  32
ENDBRANCH  18  19
ENDBRANCH  17  18
ENDBRANCH  15  17
ENDBRANCH   8  14
ENDBRANCH   1   8
TORSDOF 10
ENDMDL
MODEL 225
REMARK VINA RESULT:    -7.317      5.187      9.639
REMARK INTER + INTRA:         -12.643
REMARK INTER:                 -12.087
REMARK INTRA:                  -0.555
REMARK UNBOUND:                -1.048
REMARK  10 active torsions:
REMARK  status: ('A' for Active; 'I' for Inactive)
REMARK   1   A    between atoms:  C27_1   and   C6_8  
REMARK   2   A    between atoms:  C6_8    and   C5_9  
REMARK   3   A    between atoms:  C5_9    and   C3_12 
REMARK   4   A    between atoms:  C6_8    and   N7_14 
REMARK   5   A    between atoms:  C8_15   and  C10_17 
REMARK   6   A    between atoms: C10_17   and  O11_18 
REMARK   7   A    between atoms: O11_18   and  C12_19 
REMARK   8   A    between atoms: C13_20   and  C14_25 
REMARK   9   A    between atoms: C14_25   and  N15_26 
REMARK   10  A    between atoms: C24_24   and  O25_32 
ROOT
ATOM      1 C27  MOL A   1       6.971 -17.806  -8.422  1.00  0.00    -0.024 A 
ATOM      2 C28  MOL A   1       6.440 -16.648  -7.825  1.00  0.00    -0.057 A 
ATOM      3 C29  MOL A   1       5.214 -16.697  -7.154  1.00  0.00    -0.061 A 
ATOM      4 C30  MOL A   1       4.507 -17.900  -7.071  1.00  0.00    -0.048 A 
ATOM      5 C31  MOL A   1       5.025 -19.060  -7.657  1.00  0.00     0.018 A 
ATOM      6 Br32 MOL A   1       4.067 -20.710  -7.525  1.00  0.00    -0.051 Br
ATOM      7 C33  MOL A   1       6.248 -19.013  -8.334  1.00  0.00    -0.043 A 
ENDROOT
BRANCH   1   8
ATOM      8  C6  MOL A   1       8.262 -17.729  -9.209  1.00  0.00     0.063 C 
BRANCH   8   9
ATOM      9  C5  MOL A   1       8.298 -18.841 -10.273  1.00  0.00     0.051 C 
BRANCH   9  12
ATOM     10  C1  MOL A   1       7.044 -17.038 -13.489  1.00  0.00     0.006 C 
ATOM     11  N2  MOL A   1       7.100 -17.606 -12.150  1.00  0.00    -0.359 N 
ATOM     12  C3  MOL A   1       8.268 -18.274 -11.662  1.00  0.00     0.222 C 
ATOM     13  O4  MOL A   1       9.286 -18.388 -12.399  1.00  0.00    -0.275 OA
ENDBRANCH   9  12
ENDBRANCH   8   9
BRANCH   8  14
ATOM     14  N7  MOL A   1       9.414 -17.839  -8.307  1.00  0.00    -0.346 N 
ATOM     15  C8  MOL A   1       9.940 -19.098  -7.881  1.00  0.00     0.258 C 
ATOM     16  O9  MOL A   1       9.409 -20.172  -8.270  1.00  0.00    -0.271 OA
BRANCH  15  17
ATOM     17 C10  MOL A   1      11.136 -19.154  -6.980  1.00  0.00     0.167 C 
BRANCH  17  18
ATOM     18 O11  MOL A   1      12.299 -19.524  -7.716  1.00  0.00    -0.480 OA
BRANCH  18  19
ATOM     19 C12  MOL A   1      13.466 -19.967  -7.087  1.00  0.00     0.166 A 
ATOM     20 C13  MOL A   1      14.563 -19.099  -6.886  1.00  0.00     0.012 A 
ATOM     21 C21  MOL A   1      15.684 -19.563  -6.178  1.00  0.00    -0.054 A 
ATOM     22 C22  MOL A   1      15.737 -20.880  -5.720  1.00  0.00    -0.058 A 
ATOM     23 C23  MOL A   1      14.674 -21.750  -5.964  1.00  0.00    -0.016 A 
ATOM     24 C24  MOL A   1      13.532 -21.301  -6.653  1.00  0.00     0.161 A 
BRANCH  20  25
ATOM     25 C14  MOL A   1      14.564 -17.681  -7.414  1.00  0.00     0.028 C 
BRANCH  25  26
ATOM     26 N15  MOL A   1      14.190 -16.732  -6.345  1.00  0.00    -0.287 NA
ATOM     27 C16  MOL A   1      13.127 -15.812  -6.785  1.00  0.00     0.064 C 
ATOM     28 C17  MOL A   1      14.041 -14.605  -6.710  1.00  0.00     0.272 C 
ATOM     29 F18  MOL A   1      13.686 -13.700  -5.726  1.00  0.00    -0.204 F 
ATOM     30 F19  MOL A   1      14.298 -14.023  -7.941  1.00  0.00    -0.204 F 
ATOM     31 C20  MOL A   1      15.111 -15.585  -6.273  1.00  0.00     0.064 C 
ENDBRANCH  25  26
ENDBRANCH  20  25
BRANCH  24  32
ATOM     32 O25  MOL A   1      12.442 -22.144  -6.918  1.00  0.00    -0.493 OA
ATOM     33 C26  MOL A   1      12.537 -23.394  -7.592  1.00  0.00     0.078 C 
ENDBRANCH  24  32
ENDBRANCH  18  19
ENDBRANCH  17  18
ENDBRANCH  15  17
ENDBRANCH   8  14
ENDBRANCH   1   8
TORSDOF 10
ENDMDL
MODEL 226
REMARK VINA RESULT:    -7.315      5.063      9.248
REMARK INTER + INTRA:         -12.640
REMARK INTER:                 -11.124
REMARK INTRA:                  -1.516
REMARK UNBOUND:                -1.048
REMARK  10 active torsions:
REMARK  status: ('A' for Active; 'I' for Inactive)
REMARK   1   A    between atoms:  C27_1   and   C6_8  
REMARK   2   A    between atoms:  C6_8    and   C5_9  
REMARK   3   A    between atoms:  C5_9    and   C3_12 
REMARK   4   A    between atoms:  C6_8    and   N7_14 
REMARK   5   A    between atoms:  C8_15   and  C10_17 
REMARK   6   A    between atoms: C10_17   and  O11_18 
REMARK   7   A    between atoms: O11_18   and  C12_19 
REMARK   8   A    between atoms: C13_20   and  C14_25 
REMARK   9   A    between atoms: C14_25   and  N15_26 
REMARK   10  A    between atoms: C24_24   and  O25_32 
ROOT
ATOM      1 C27  MOL A   1       6.963 -19.440  -9.132  1.00  0.00    -0.024 A 
ATOM      2 C28  MOL A   1       7.282 -20.097 -10.334  1.00  0.00    -0.057 A 
ATOM      3 C29  MOL A   1       6.557 -21.223 -10.739  1.00  0.00    -0.061 A 
ATOM      4 C30  MOL A   1       5.508 -21.703  -9.950  1.00  0.00    -0.048 A 
ATOM      5 C31  MOL A   1       5.178 -21.056  -8.754  1.00  0.00     0.018 A 
ATOM      6 Br32 MOL A   1       3.728 -21.701  -7.685  1.00  0.00    -0.051 Br
ATOM      7 C33  MOL A   1       5.904 -19.934  -8.343  1.00  0.00    -0.043 A 
ENDROOT
BRANCH   1   8
ATOM      8  C6  MOL A   1       7.798 -18.267  -8.665  1.00  0.00     0.063 C 
BRANCH   8   9
ATOM      9  C5  MOL A   1       7.092 -16.945  -9.015  1.00  0.00     0.051 C 
BRANCH   9  12
ATOM     10  C1  MOL A   1       4.427 -15.942  -6.357  1.00  0.00     0.006 C 
ATOM     11  N2  MOL A   1       5.068 -16.524  -7.527  1.00  0.00    -0.359 N 
ATOM     12  C3  MOL A   1       6.458 -16.322  -7.805  1.00  0.00     0.222 C 
ATOM     13  O4  MOL A   1       7.162 -15.621  -7.029  1.00  0.00    -0.275 OA
ENDBRANCH   9  12
ENDBRANCH   8   9
BRANCH   8  14
ATOM     14  N7  MOL A   1       9.131 -18.318  -9.276  1.00  0.00    -0.346 N 
ATOM     15  C8  MOL A   1      10.282 -17.738  -8.658  1.00  0.00     0.258 C 
ATOM     16  O9  MOL A   1      10.178 -17.145  -7.551  1.00  0.00    -0.271 OA
BRANCH  15  17
ATOM     17 C10  MOL A   1      11.627 -17.841  -9.313  1.00  0.00     0.167 C 
BRANCH  17  18
ATOM     18 O11  MOL A   1      12.047 -19.202  -9.377  1.00  0.00    -0.480 OA
BRANCH  18  19
ATOM     19 C12  MOL A   1      12.560 -19.873  -8.264  1.00  0.00     0.166 A 
ATOM     20 C13  MOL A   1      13.860 -19.599  -7.781  1.00  0.00     0.012 A 
ATOM     21 C21  MOL A   1      14.306 -20.239  -6.612  1.00  0.00    -0.054 A 
ATOM     22 C22  MOL A   1      13.497 -21.170  -5.962  1.00  0.00    -0.058 A 
ATOM     23 C23  MOL A   1      12.234 -21.477  -6.470  1.00  0.00    -0.016 A 
ATOM     24 C24  MOL A   1      11.758 -20.833  -7.627  1.00  0.00     0.161 A 
BRANCH  20  25
ATOM     25 C14  MOL A   1      14.787 -18.635  -8.489  1.00  0.00     0.028 C 
BRANCH  25  26
ATOM     26 N15  MOL A   1      15.395 -17.699  -7.521  1.00  0.00    -0.287 NA
ATOM     27 C16  MOL A   1      14.397 -16.767  -6.969  1.00  0.00     0.064 C 
ATOM     28 C17  MOL A   1      15.048 -15.566  -7.627  1.00  0.00     0.272 C 
ATOM     29 F18  MOL A   1      15.602 -14.672  -6.727  1.00  0.00    -0.204 F 
ATOM     30 F19  MOL A   1      14.262 -14.969  -8.599  1.00  0.00    -0.204 F 
ATOM     31 C20  MOL A   1      16.048 -16.559  -8.187  1.00  0.00     0.064 C 
ENDBRANCH  25  26
ENDBRANCH  20  25
BRANCH  24  32
ATOM     32 O25  MOL A   1      10.495 -21.113  -8.170  1.00  0.00    -0.493 OA
ATOM     33 C26  MOL A   1      10.254 -22.065  -9.201  1.00  0.00     0.078 C 
ENDBRANCH  24  32
ENDBRANCH  18  19
ENDBRANCH  17  18
ENDBRANCH  15  17
ENDBRANCH   8  14
ENDBRANCH   1   8
TORSDOF 10
ENDMDL
MODEL 227
REMARK VINA RESULT:    -7.311      5.049     10.291
REMARK INTER + INTRA:         -12.633
REMARK INTER:                 -11.365
REMARK INTRA:                  -1.269
REMARK UNBOUND:                -1.048
REMARK  10 active torsions:
REMARK  status: ('A' for Active; 'I' for Inactive)
REMARK   1   A    between atoms:  C27_1   and   C6_8  
REMARK   2   A    between atoms:  C6_8    and   C5_9  
REMARK   3   A    between atoms:  C5_9    and   C3_12 
REMARK   4   A    between atoms:  C6_8    and   N7_14 
REMARK   5   A    between atoms:  C8_15   and  C10_17 
REMARK   6   A    between atoms: C10_17   and  O11_18 
REMARK   7   A    between atoms: O11_18   and  C12_19 
REMARK   8   A    between atoms: C13_20   and  C14_25 
REMARK   9   A    between atoms: C14_25   and  N15_26 
REMARK   10  A    between atoms: C24_24   and  O25_32 
ROOT
ATOM      1 C27  MOL A   1       9.028 -20.471  -8.994  1.00  0.00    -0.024 A 
ATOM      2 C28  MOL A   1       9.312 -21.584  -9.806  1.00  0.00    -0.057 A 
ATOM      3 C29  MOL A   1       8.358 -22.591  -9.985  1.00  0.00    -0.061 A 
ATOM      4 C30  MOL A   1       7.113 -22.498  -9.356  1.00  0.00    -0.048 A 
ATOM      5 C31  MOL A   1       6.817 -21.394  -8.548  1.00  0.00     0.018 A 
ATOM      6 Br32 MOL A   1       5.105 -21.257  -7.705  1.00  0.00    -0.051 Br
ATOM      7 C33  MOL A   1       7.771 -20.388  -8.362  1.00  0.00    -0.043 A 
ENDROOT
BRANCH   1   8
ATOM      8  C6  MOL A   1      10.092 -19.422  -8.747  1.00  0.00     0.063 C 
BRANCH   8   9
ATOM      9  C5  MOL A   1      10.036 -18.346  -9.846  1.00  0.00     0.051 C 
BRANCH   9  12
ATOM     10  C1  MOL A   1       6.801 -16.241 -10.368  1.00  0.00     0.006 C 
ATOM     11  N2  MOL A   1       7.897 -17.176 -10.580  1.00  0.00    -0.359 N 
ATOM     12  C3  MOL A   1       8.925 -17.367  -9.602  1.00  0.00     0.222 C 
ATOM     13  O4  MOL A   1       8.901 -16.713  -8.524  1.00  0.00    -0.275 OA
ENDBRANCH   9  12
ENDBRANCH   8   9
BRANCH   8  14
ATOM     14  N7  MOL A   1      11.419 -20.046  -8.701  1.00  0.00    -0.346 N 
ATOM     15  C8  MOL A   1      12.478 -19.540  -7.886  1.00  0.00     0.258 C 
ATOM     16  O9  MOL A   1      12.299 -18.515  -7.176  1.00  0.00    -0.271 OA
BRANCH  15  17
ATOM     17 C10  MOL A   1      13.808 -20.231  -7.856  1.00  0.00     0.167 C 
BRANCH  17  18
ATOM     18 O11  MOL A   1      14.796 -19.386  -7.270  1.00  0.00    -0.480 OA
BRANCH  18  19
ATOM     19 C12  MOL A   1      15.915 -18.949  -7.985  1.00  0.00     0.166 A 
ATOM     20 C13  MOL A   1      16.003 -17.622  -8.464  1.00  0.00     0.012 A 
ATOM     21 C21  MOL A   1      17.180 -17.202  -9.107  1.00  0.00    -0.054 A 
ATOM     22 C22  MOL A   1      18.230 -18.096  -9.315  1.00  0.00    -0.058 A 
ATOM     23 C23  MOL A   1      18.121 -19.419  -8.886  1.00  0.00    -0.016 A 
ATOM     24 C24  MOL A   1      16.960 -19.857  -8.221  1.00  0.00     0.161 A 
BRANCH  20  25
ATOM     25 C14  MOL A   1      14.864 -16.640  -8.304  1.00  0.00     0.028 C 
BRANCH  25  26
ATOM     26 N15  MOL A   1      15.159 -15.679  -7.222  1.00  0.00    -0.287 NA
ATOM     27 C16  MOL A   1      14.442 -16.022  -5.982  1.00  0.00     0.064 C 
ATOM     28 C17  MOL A   1      13.588 -14.771  -6.043  1.00  0.00     0.272 C 
ATOM     29 F18  MOL A   1      13.843 -13.874  -5.021  1.00  0.00    -0.204 F 
ATOM     30 F19  MOL A   1      12.241 -15.025  -6.244  1.00  0.00    -0.204 F 
ATOM     31 C20  MOL A   1      14.339 -14.459  -7.322  1.00  0.00     0.064 C 
ENDBRANCH  25  26
ENDBRANCH  20  25
BRANCH  24  32
ATOM     32 O25  MOL A   1      16.810 -21.178  -7.775  1.00  0.00    -0.493 OA
ATOM     33 C26  MOL A   1      16.554 -22.291  -8.625  1.00  0.00     0.078 C 
ENDBRANCH  24  32
ENDBRANCH  18  19
ENDBRANCH  17  18
ENDBRANCH  15  17
ENDBRANCH   8  14
ENDBRANCH   1   8
TORSDOF 10
ENDMDL
MODEL 228
REMARK VINA RESULT:    -7.308      5.779     10.301
REMARK INTER + INTRA:         -12.629
REMARK INTER:                 -11.360
REMARK INTRA:                  -1.269
REMARK UNBOUND:                -1.048
REMARK  10 active torsions:
REMARK  status: ('A' for Active; 'I' for Inactive)
REMARK   1   A    between atoms:  C27_1   and   C6_8  
REMARK   2   A    between atoms:  C6_8    and   C5_9  
REMARK   3   A    between atoms:  C5_9    and   C3_12 
REMARK   4   A    between atoms:  C6_8    and   N7_14 
REMARK   5   A    between atoms:  C8_15   and  C10_17 
REMARK   6   A    between atoms: C10_17   and  O11_18 
REMARK   7   A    between atoms: O11_18   and  C12_19 
REMARK   8   A    between atoms: C13_20   and  C14_25 
REMARK   9   A    between atoms: C14_25   and  N15_26 
REMARK   10  A    between atoms: C24_24   and  O25_32 
ROOT
ATOM      1 C27  MOL A   1       8.535 -18.451  -9.280  1.00  0.00    -0.024 A 
ATOM      2 C28  MOL A   1       8.390 -17.315  -8.464  1.00  0.00    -0.057 A 
ATOM      3 C29  MOL A   1       7.809 -16.148  -8.972  1.00  0.00    -0.061 A 
ATOM      4 C30  MOL A   1       7.368 -16.104 -10.298  1.00  0.00    -0.048 A 
ATOM      5 C31  MOL A   1       7.504 -17.229 -11.119  1.00  0.00     0.018 A 
ATOM      6 Br32 MOL A   1       6.880 -17.175 -12.927  1.00  0.00    -0.051 Br
ATOM      7 C33  MOL A   1       8.089 -18.395 -10.616  1.00  0.00    -0.043 A 
ENDROOT
BRANCH   1   8
ATOM      8  C6  MOL A   1       9.231 -19.684  -8.745  1.00  0.00     0.063 C 
BRANCH   8   9
ATOM      9  C5  MOL A   1       8.260 -20.499  -7.870  1.00  0.00     0.051 C 
BRANCH   9  12
ATOM     10  C1  MOL A   1       4.892 -21.626  -9.470  1.00  0.00     0.006 C 
ATOM     11  N2  MOL A   1       5.877 -20.919  -8.664  1.00  0.00    -0.359 N 
ATOM     12  C3  MOL A   1       7.268 -21.254  -8.706  1.00  0.00     0.222 C 
ATOM     13  O4  MOL A   1       7.671 -22.189  -9.452  1.00  0.00    -0.275 OA
ENDBRANCH   9  12
ENDBRANCH   8   9
BRANCH   8  14
ATOM     14  N7  MOL A   1      10.421 -19.304  -7.977  1.00  0.00    -0.346 N 
ATOM     15  C8  MOL A   1      11.682 -19.036  -8.595  1.00  0.00     0.258 C 
ATOM     16  O9  MOL A   1      11.809 -19.132  -9.845  1.00  0.00    -0.271 OA
BRANCH  15  17
ATOM     17 C10  MOL A   1      12.861 -18.625  -7.766  1.00  0.00     0.167 C 
BRANCH  17  18
ATOM     18 O11  MOL A   1      13.873 -18.050  -8.589  1.00  0.00    -0.480 OA
BRANCH  18  19
ATOM     19 C12  MOL A   1      15.224 -18.077  -8.230  1.00  0.00     0.166 A 
ATOM     20 C13  MOL A   1      15.874 -16.920  -7.743  1.00  0.00     0.012 A 
ATOM     21 C21  MOL A   1      17.211 -17.012  -7.320  1.00  0.00    -0.054 A 
ATOM     22 C22  MOL A   1      17.905 -18.217  -7.424  1.00  0.00    -0.058 A 
ATOM     23 C23  MOL A   1      17.276 -19.345  -7.952  1.00  0.00    -0.016 A 
ATOM     24 C24  MOL A   1      15.932 -19.282  -8.364  1.00  0.00     0.161 A 
BRANCH  20  25
ATOM     25 C14  MOL A   1      15.170 -15.583  -7.666  1.00  0.00     0.028 C 
BRANCH  25  26
ATOM     26 N15  MOL A   1      15.060 -15.139  -6.261  1.00  0.00    -0.287 NA
ATOM     27 C16  MOL A   1      14.369 -16.139  -5.430  1.00  0.00     0.064 C 
ATOM     28 C17  MOL A   1      13.186 -15.224  -5.183  1.00  0.00     0.272 C 
ATOM     29 F18  MOL A   1      13.062 -14.819  -3.865  1.00  0.00    -0.204 F 
ATOM     30 F19  MOL A   1      12.003 -15.677  -5.744  1.00  0.00    -0.204 F 
ATOM     31 C20  MOL A   1      13.922 -14.226  -6.055  1.00  0.00     0.064 C 
ENDBRANCH  25  26
ENDBRANCH  20  25
BRANCH  24  32
ATOM     32 O25  MOL A   1      15.264 -20.392  -8.900  1.00  0.00    -0.493 OA
ATOM     33 C26  MOL A   1      15.747 -21.730  -8.839  1.00  0.00     0.078 C 
ENDBRANCH  24  32
ENDBRANCH  18  19
ENDBRANCH  17  18
ENDBRANCH  15  17
ENDBRANCH   8  14
ENDBRANCH   1   8
TORSDOF 10
ENDMDL
MODEL 229
REMARK VINA RESULT:    -7.308      6.140     10.707
REMARK INTER + INTRA:         -12.628
REMARK INTER:                 -10.990
REMARK INTRA:                  -1.638
REMARK UNBOUND:                -1.048
REMARK  10 active torsions:
REMARK  status: ('A' for Active; 'I' for Inactive)
REMARK   1   A    between atoms:  C27_1   and   C6_8  
REMARK   2   A    between atoms:  C6_8    and   C5_9  
REMARK   3   A    between atoms:  C5_9    and   C3_12 
REMARK   4   A    between atoms:  C6_8    and   N7_14 
REMARK   5   A    between atoms:  C8_15   and  C10_17 
REMARK   6   A    between atoms: C10_17   and  O11_18 
REMARK   7   A    between atoms: O11_18   and  C12_19 
REMARK   8   A    between atoms: C13_20   and  C14_25 
REMARK   9   A    between atoms: C14_25   and  N15_26 
REMARK   10  A    between atoms: C24_24   and  O25_32 
ROOT
ATOM      1 C27  MOL A   1       9.000 -20.956  -9.313  1.00  0.00    -0.024 A 
ATOM      2 C28  MOL A   1       7.817 -21.586  -9.739  1.00  0.00    -0.057 A 
ATOM      3 C29  MOL A   1       7.786 -22.971  -9.940  1.00  0.00    -0.061 A 
ATOM      4 C30  MOL A   1       8.933 -23.737  -9.718  1.00  0.00    -0.048 A 
ATOM      5 C31  MOL A   1      10.115 -23.123  -9.290  1.00  0.00     0.018 A 
ATOM      6 Br32 MOL A   1      11.679 -24.176  -8.966  1.00  0.00    -0.051 Br
ATOM      7 C33  MOL A   1      10.151 -21.739  -9.094  1.00  0.00    -0.043 A 
ENDROOT
BRANCH   1   8
ATOM      8  C6  MOL A   1       9.045 -19.450  -9.168  1.00  0.00     0.063 C 
BRANCH   8   9
ATOM      9  C5  MOL A   1       7.952 -18.803 -10.038  1.00  0.00     0.051 C 
BRANCH   9  12
ATOM     10  C1  MOL A   1       5.830 -16.686  -7.551  1.00  0.00     0.006 C 
ATOM     11  N2  MOL A   1       6.442 -17.810  -8.243  1.00  0.00    -0.359 N 
ATOM     12  C3  MOL A   1       7.329 -17.623  -9.351  1.00  0.00     0.222 C 
ATOM     13  O4  MOL A   1       7.595 -16.459  -9.758  1.00  0.00    -0.275 OA
ENDBRANCH   9  12
ENDBRANCH   8   9
BRANCH   8  14
ATOM     14  N7  MOL A   1      10.370 -18.943  -9.541  1.00  0.00    -0.346 N 
ATOM     15  C8  MOL A   1      11.037 -17.918  -8.803  1.00  0.00     0.258 C 
ATOM     16  O9  MOL A   1      10.488 -17.402  -7.793  1.00  0.00    -0.271 OA
BRANCH  15  17
ATOM     17 C10  MOL A   1      12.403 -17.454  -9.213  1.00  0.00     0.167 C 
BRANCH  17  18
ATOM     18 O11  MOL A   1      13.291 -17.469  -8.097  1.00  0.00    -0.480 OA
BRANCH  18  19
ATOM     19 C12  MOL A   1      14.511 -16.789  -8.112  1.00  0.00     0.166 A 
ATOM     20 C13  MOL A   1      15.679 -17.394  -8.632  1.00  0.00     0.012 A 
ATOM     21 C21  MOL A   1      16.866 -16.645  -8.701  1.00  0.00    -0.054 A 
ATOM     22 C22  MOL A   1      16.907 -15.338  -8.217  1.00  0.00    -0.058 A 
ATOM     23 C23  MOL A   1      15.767 -14.760  -7.658  1.00  0.00    -0.016 A 
ATOM     24 C24  MOL A   1      14.561 -15.483  -7.597  1.00  0.00     0.161 A 
BRANCH  20  25
ATOM     25 C14  MOL A   1      15.686 -18.827  -9.117  1.00  0.00     0.028 C 
BRANCH  25  26
ATOM     26 N15  MOL A   1      16.473 -19.677  -8.201  1.00  0.00    -0.287 NA
ATOM     27 C16  MOL A   1      16.594 -21.054  -8.710  1.00  0.00     0.064 C 
ATOM     28 C17  MOL A   1      15.774 -21.625  -7.570  1.00  0.00     0.272 C 
ATOM     29 F18  MOL A   1      16.499 -22.440  -6.718  1.00  0.00    -0.204 F 
ATOM     30 F19  MOL A   1      14.564 -22.167  -7.971  1.00  0.00    -0.204 F 
ATOM     31 C20  MOL A   1      15.661 -20.193  -7.086  1.00  0.00     0.064 C 
ENDBRANCH  25  26
ENDBRANCH  20  25
BRANCH  24  32
ATOM     32 O25  MOL A   1      13.393 -14.940  -7.043  1.00  0.00    -0.493 OA
ATOM     33 C26  MOL A   1      12.972 -15.140  -5.698  1.00  0.00     0.078 C 
ENDBRANCH  24  32
ENDBRANCH  18  19
ENDBRANCH  17  18
ENDBRANCH  15  17
ENDBRANCH   8  14
ENDBRANCH   1   8
TORSDOF 10
ENDMDL
MODEL 230
REMARK VINA RESULT:    -7.308      5.853     10.105
REMARK INTER + INTRA:         -12.628
REMARK INTER:                 -11.823
REMARK INTRA:                  -0.805
REMARK UNBOUND:                -1.048
REMARK  10 active torsions:
REMARK  status: ('A' for Active; 'I' for Inactive)
REMARK   1   A    between atoms:  C27_1   and   C6_8  
REMARK   2   A    between atoms:  C6_8    and   C5_9  
REMARK   3   A    between atoms:  C5_9    and   C3_12 
REMARK   4   A    between atoms:  C6_8    and   N7_14 
REMARK   5   A    between atoms:  C8_15   and  C10_17 
REMARK   6   A    between atoms: C10_17   and  O11_18 
REMARK   7   A    between atoms: O11_18   and  C12_19 
REMARK   8   A    between atoms: C13_20   and  C14_25 
REMARK   9   A    between atoms: C14_25   and  N15_26 
REMARK   10  A    between atoms: C24_24   and  O25_32 
ROOT
ATOM      1 C27  MOL A   1       6.999 -19.396  -8.948  1.00  0.00    -0.024 A 
ATOM      2 C28  MOL A   1       6.898 -18.053  -8.541  1.00  0.00    -0.057 A 
ATOM      3 C29  MOL A   1       5.779 -17.613  -7.825  1.00  0.00    -0.061 A 
ATOM      4 C30  MOL A   1       4.752 -18.508  -7.510  1.00  0.00    -0.048 A 
ATOM      5 C31  MOL A   1       4.842 -19.847  -7.906  1.00  0.00     0.018 A 
ATOM      6 Br32 MOL A   1       3.447 -21.075  -7.455  1.00  0.00    -0.051 Br
ATOM      7 C33  MOL A   1       5.957 -20.289  -8.626  1.00  0.00    -0.043 A 
ENDROOT
BRANCH   1   8
ATOM      8  C6  MOL A   1       8.178 -19.847  -9.784  1.00  0.00     0.063 C 
BRANCH   8   9
ATOM      9  C5  MOL A   1       7.719 -20.884 -10.825  1.00  0.00     0.051 C 
BRANCH   9  12
ATOM     10  C1  MOL A   1      10.202 -23.878 -11.032  1.00  0.00     0.006 C 
ATOM     11  N2  MOL A   1       9.560 -22.590 -11.254  1.00  0.00    -0.359 N 
ATOM     12  C3  MOL A   1       8.351 -22.224 -10.582  1.00  0.00     0.222 C 
ATOM     13  O4  MOL A   1       7.807 -23.027  -9.776  1.00  0.00    -0.275 OA
ENDBRANCH   9  12
ENDBRANCH   8   9
BRANCH   8  14
ATOM     14  N7  MOL A   1       9.226 -20.407  -8.924  1.00  0.00    -0.346 N 
ATOM     15  C8  MOL A   1      10.557 -19.886  -8.896  1.00  0.00     0.258 C 
ATOM     16  O9  MOL A   1      10.875 -18.916  -9.633  1.00  0.00    -0.271 OA
BRANCH  15  17
ATOM     17 C10  MOL A   1      11.583 -20.480  -7.978  1.00  0.00     0.167 C 
BRANCH  17  18
ATOM     18 O11  MOL A   1      12.880 -19.973  -8.286  1.00  0.00    -0.480 OA
BRANCH  18  19
ATOM     19 C12  MOL A   1      13.992 -20.247  -7.486  1.00  0.00     0.166 A 
ATOM     20 C13  MOL A   1      14.645 -19.221  -6.764  1.00  0.00     0.012 A 
ATOM     21 C21  MOL A   1      15.710 -19.555  -5.911  1.00  0.00    -0.054 A 
ATOM     22 C22  MOL A   1      16.151 -20.874  -5.811  1.00  0.00    -0.058 A 
ATOM     23 C23  MOL A   1      15.538 -21.877  -6.563  1.00  0.00    -0.016 A 
ATOM     24 C24  MOL A   1      14.456 -21.570  -7.409  1.00  0.00     0.161 A 
BRANCH  20  25
ATOM     25 C14  MOL A   1      14.229 -17.772  -6.888  1.00  0.00     0.028 C 
BRANCH  25  26
ATOM     26 N15  MOL A   1      15.415 -16.892  -6.873  1.00  0.00    -0.287 NA
ATOM     27 C16  MOL A   1      15.066 -15.519  -6.471  1.00  0.00     0.064 C 
ATOM     28 C17  MOL A   1      15.409 -14.954  -7.835  1.00  0.00     0.272 C 
ATOM     29 F18  MOL A   1      16.507 -14.111  -7.828  1.00  0.00    -0.204 F 
ATOM     30 F19  MOL A   1      14.316 -14.446  -8.519  1.00  0.00    -0.204 F 
ATOM     31 C20  MOL A   1      15.746 -16.383  -8.215  1.00  0.00     0.064 C 
ENDBRANCH  25  26
ENDBRANCH  20  25
BRANCH  24  32
ATOM     32 O25  MOL A   1      13.814 -22.549  -8.182  1.00  0.00    -0.493 OA
ATOM     33 C26  MOL A   1      13.326 -23.785  -7.672  1.00  0.00     0.078 C 
ENDBRANCH  24  32
ENDBRANCH  18  19
ENDBRANCH  17  18
ENDBRANCH  15  17
ENDBRANCH   8  14
ENDBRANCH   1   8
TORSDOF 10
ENDMDL
MODEL 231
REMARK VINA RESULT:    -7.306      5.336      9.969
REMARK INTER + INTRA:         -12.625
REMARK INTER:                 -11.411
REMARK INTRA:                  -1.214
REMARK UNBOUND:                -1.048
REMARK  10 active torsions:
REMARK  status: ('A' for Active; 'I' for Inactive)
REMARK   1   A    between atoms:  C27_1   and   C6_8  
REMARK   2   A    between atoms:  C6_8    and   C5_9  
REMARK   3   A    between atoms:  C5_9    and   C3_12 
REMARK   4   A    between atoms:  C6_8    and   N7_14 
REMARK   5   A    between atoms:  C8_15   and  C10_17 
REMARK   6   A    between atoms: C10_17   and  O11_18 
REMARK   7   A    between atoms: O11_18   and  C12_19 
REMARK   8   A    between atoms: C13_20   and  C14_25 
REMARK   9   A    between atoms: C14_25   and  N15_26 
REMARK   10  A    between atoms: C24_24   and  O25_32 
ROOT
ATOM      1 C27  MOL A   1       7.667 -17.632  -9.966  1.00  0.00    -0.024 A 
ATOM      2 C28  MOL A   1       7.203 -17.693  -8.639  1.00  0.00    -0.057 A 
ATOM      3 C29  MOL A   1       6.195 -16.827  -8.202  1.00  0.00    -0.061 A 
ATOM      4 C30  MOL A   1       5.641 -15.894  -9.083  1.00  0.00    -0.048 A 
ATOM      5 C31  MOL A   1       6.091 -15.826 -10.406  1.00  0.00     0.018 A 
ATOM      6 Br32 MOL A   1       5.317 -14.563 -11.617  1.00  0.00    -0.051 Br
ATOM      7 C33  MOL A   1       7.102 -16.686 -10.845  1.00  0.00    -0.043 A 
ENDROOT
BRANCH   1   8
ATOM      8  C6  MOL A   1       8.807 -18.522 -10.411  1.00  0.00     0.063 C 
BRANCH   8   9
ATOM      9  C5  MOL A   1       8.254 -19.807 -11.054  1.00  0.00     0.051 C 
BRANCH   9  12
ATOM     10  C1  MOL A   1       9.701 -23.087  -9.530  1.00  0.00     0.006 C 
ATOM     11  N2  MOL A   1       9.493 -21.931 -10.390  1.00  0.00    -0.359 N 
ATOM     12  C3  MOL A   1       8.436 -20.995 -10.154  1.00  0.00     0.222 C 
ATOM     13  O4  MOL A   1       7.649 -21.162  -9.182  1.00  0.00    -0.275 OA
ENDBRANCH   9  12
ENDBRANCH   8   9
BRANCH   8  14
ATOM     14  N7  MOL A   1       9.673 -18.846  -9.272  1.00  0.00    -0.346 N 
ATOM     15  C8  MOL A   1      11.098 -18.762  -9.341  1.00  0.00     0.258 C 
ATOM     16  O9  MOL A   1      11.663 -18.409 -10.410  1.00  0.00    -0.271 OA
BRANCH  15  17
ATOM     17 C10  MOL A   1      11.935 -19.080  -8.138  1.00  0.00     0.167 C 
BRANCH  17  18
ATOM     18 O11  MOL A   1      13.262 -19.425  -8.531  1.00  0.00    -0.480 OA
BRANCH  18  19
ATOM     19 C12  MOL A   1      14.214 -19.872  -7.611  1.00  0.00     0.166 A 
ATOM     20 C13  MOL A   1      15.151 -18.981  -7.039  1.00  0.00     0.012 A 
ATOM     21 C21  MOL A   1      16.039 -19.456  -6.060  1.00  0.00    -0.054 A 
ATOM     22 C22  MOL A   1      16.031 -20.801  -5.690  1.00  0.00    -0.058 A 
ATOM     23 C23  MOL A   1      15.140 -21.689  -6.292  1.00  0.00    -0.016 A 
ATOM     24 C24  MOL A   1      14.227 -21.232  -7.261  1.00  0.00     0.161 A 
BRANCH  20  25
ATOM     25 C14  MOL A   1      15.225 -17.528  -7.453  1.00  0.00     0.028 C 
BRANCH  25  26
ATOM     26 N15  MOL A   1      14.577 -16.669  -6.441  1.00  0.00    -0.287 NA
ATOM     27 C16  MOL A   1      13.470 -15.889  -7.020  1.00  0.00     0.064 C 
ATOM     28 C17  MOL A   1      14.189 -14.572  -6.805  1.00  0.00     0.272 C 
ATOM     29 F18  MOL A   1      13.577 -13.751  -5.873  1.00  0.00    -0.204 F 
ATOM     30 F19  MOL A   1      14.533 -13.926  -7.982  1.00  0.00    -0.204 F 
ATOM     31 C20  MOL A   1      15.312 -15.410  -6.228  1.00  0.00     0.064 C 
ENDBRANCH  25  26
ENDBRANCH  20  25
BRANCH  24  32
ATOM     32 O25  MOL A   1      13.316 -22.091  -7.891  1.00  0.00    -0.493 OA
ATOM     33 C26  MOL A   1      13.256 -23.498  -7.678  1.00  0.00     0.078 C 
ENDBRANCH  24  32
ENDBRANCH  18  19
ENDBRANCH  17  18
ENDBRANCH  15  17
ENDBRANCH   8  14
ENDBRANCH   1   8
TORSDOF 10
ENDMDL
MODEL 232
REMARK VINA RESULT:    -7.306      6.470     11.284
REMARK INTER + INTRA:         -12.625
REMARK INTER:                 -11.204
REMARK INTRA:                  -1.421
REMARK UNBOUND:                -1.048
REMARK  10 active torsions:
REMARK  status: ('A' for Active; 'I' for Inactive)
REMARK   1   A    between atoms:  C27_1   and   C6_8  
REMARK   2   A    between atoms:  C6_8    and   C5_9  
REMARK   3   A    between atoms:  C5_9    and   C3_12 
REMARK   4   A    between atoms:  C6_8    and   N7_14 
REMARK   5   A    between atoms:  C8_15   and  C10_17 
REMARK   6   A    between atoms: C10_17   and  O11_18 
REMARK   7   A    between atoms: O11_18   and  C12_19 
REMARK   8   A    between atoms: C13_20   and  C14_25 
REMARK   9   A    between atoms: C14_25   and  N15_26 
REMARK   10  A    between atoms: C24_24   and  O25_32 
ROOT
ATOM      1 C27  MOL A   1       9.361 -17.969  -8.986  1.00  0.00    -0.024 A 
ATOM      2 C28  MOL A   1       8.870 -16.862  -8.270  1.00  0.00    -0.057 A 
ATOM      3 C29  MOL A   1       7.906 -16.022  -8.839  1.00  0.00    -0.061 A 
ATOM      4 C30  MOL A   1       7.424 -16.278 -10.125  1.00  0.00    -0.048 A 
ATOM      5 C31  MOL A   1       7.902 -17.378 -10.847  1.00  0.00     0.018 A 
ATOM      6 Br32 MOL A   1       7.225 -17.740 -12.600  1.00  0.00    -0.051 Br
ATOM      7 C33  MOL A   1       8.869 -18.217 -10.284  1.00  0.00    -0.043 A 
ENDROOT
BRANCH   1   8
ATOM      8  C6  MOL A   1      10.455 -18.830  -8.393  1.00  0.00     0.063 C 
BRANCH   8   9
ATOM      9  C5  MOL A   1       9.839 -20.022  -7.639  1.00  0.00     0.051 C 
BRANCH   9  12
ATOM     10  C1  MOL A   1       7.046 -22.041  -9.455  1.00  0.00     0.006 C 
ATOM     11  N2  MOL A   1       7.736 -21.132  -8.551  1.00  0.00    -0.359 N 
ATOM     12  C3  MOL A   1       9.158 -20.975  -8.579  1.00  0.00     0.222 C 
ATOM     13  O4  MOL A   1       9.852 -21.636  -9.399  1.00  0.00    -0.275 OA
ENDBRANCH   9  12
ENDBRANCH   8   9
BRANCH   8  14
ATOM     14  N7  MOL A   1      11.299 -18.032  -7.496  1.00  0.00    -0.346 N 
ATOM     15  C8  MOL A   1      12.689 -17.809  -7.744  1.00  0.00     0.258 C 
ATOM     16  O9  MOL A   1      13.242 -18.311  -8.759  1.00  0.00    -0.271 OA
BRANCH  15  17
ATOM     17 C10  MOL A   1      13.500 -16.964  -6.809  1.00  0.00     0.167 C 
BRANCH  17  18
ATOM     18 O11  MOL A   1      14.874 -17.339  -6.861  1.00  0.00    -0.480 OA
BRANCH  18  19
ATOM     19 C12  MOL A   1      15.590 -17.694  -5.715  1.00  0.00     0.166 A 
ATOM     20 C13  MOL A   1      16.029 -19.022  -5.508  1.00  0.00     0.012 A 
ATOM     21 C21  MOL A   1      16.814 -19.317  -4.381  1.00  0.00    -0.054 A 
ATOM     22 C22  MOL A   1      17.116 -18.323  -3.450  1.00  0.00    -0.058 A 
ATOM     23 C23  MOL A   1      16.640 -17.025  -3.629  1.00  0.00    -0.016 A 
ATOM     24 C24  MOL A   1      15.869 -16.701  -4.761  1.00  0.00     0.161 A 
BRANCH  20  25
ATOM     25 C14  MOL A   1      15.676 -20.136  -6.469  1.00  0.00     0.028 C 
BRANCH  25  26
ATOM     26 N15  MOL A   1      14.888 -21.179  -5.780  1.00  0.00    -0.287 NA
ATOM     27 C16  MOL A   1      14.683 -22.358  -6.640  1.00  0.00     0.064 C 
ATOM     28 C17  MOL A   1      13.187 -22.129  -6.720  1.00  0.00     0.272 C 
ATOM     29 F18  MOL A   1      12.440 -23.113  -6.096  1.00  0.00    -0.204 F 
ATOM     30 F19  MOL A   1      12.740 -21.807  -7.991  1.00  0.00    -0.204 F 
ATOM     31 C20  MOL A   1      13.440 -20.917  -5.846  1.00  0.00     0.064 C 
ENDBRANCH  25  26
ENDBRANCH  20  25
BRANCH  24  32
ATOM     32 O25  MOL A   1      15.370 -15.408  -4.978  1.00  0.00    -0.493 OA
ATOM     33 C26  MOL A   1      14.950 -14.523  -3.946  1.00  0.00     0.078 C 
ENDBRANCH  24  32
ENDBRANCH  18  19
ENDBRANCH  17  18
ENDBRANCH  15  17
ENDBRANCH   8  14
ENDBRANCH   1   8
TORSDOF 10
ENDMDL
MODEL 233
REMARK VINA RESULT:    -7.304      7.039     11.006
REMARK INTER + INTRA:         -12.623
REMARK INTER:                 -10.943
REMARK INTRA:                  -1.680
REMARK UNBOUND:                -1.048
REMARK  10 active torsions:
REMARK  status: ('A' for Active; 'I' for Inactive)
REMARK   1   A    between atoms:  C27_1   and   C6_8  
REMARK   2   A    between atoms:  C6_8    and   C5_9  
REMARK   3   A    between atoms:  C5_9    and   C3_12 
REMARK   4   A    between atoms:  C6_8    and   N7_14 
REMARK   5   A    between atoms:  C8_15   and  C10_17 
REMARK   6   A    between atoms: C10_17   and  O11_18 
REMARK   7   A    between atoms: O11_18   and  C12_19 
REMARK   8   A    between atoms: C13_20   and  C14_25 
REMARK   9   A    between atoms: C14_25   and  N15_26 
REMARK   10  A    between atoms: C24_24   and  O25_32 
ROOT
ATOM      1 C27  MOL A   1      15.502 -16.051  -4.764  1.00  0.00    -0.024 A 
ATOM      2 C28  MOL A   1      15.369 -17.302  -4.134  1.00  0.00    -0.057 A 
ATOM      3 C29  MOL A   1      16.498 -17.978  -3.657  1.00  0.00    -0.061 A 
ATOM      4 C30  MOL A   1      17.768 -17.413  -3.804  1.00  0.00    -0.048 A 
ATOM      5 C31  MOL A   1      17.914 -16.168  -4.426  1.00  0.00     0.018 A 
ATOM      6 Br32 MOL A   1      19.650 -15.386  -4.608  1.00  0.00    -0.051 Br
ATOM      7 C33  MOL A   1      16.788 -15.492  -4.909  1.00  0.00    -0.043 A 
ENDROOT
BRANCH   1   8
ATOM      8  C6  MOL A   1      14.286 -15.361  -5.341  1.00  0.00     0.063 C 
BRANCH   8   9
ATOM      9  C5  MOL A   1      13.272 -15.057  -4.223  1.00  0.00     0.051 C 
BRANCH   9  12
ATOM     10  C1  MOL A   1      14.635 -13.746  -0.818  1.00  0.00     0.006 C 
ATOM     11  N2  MOL A   1      14.062 -14.604  -1.844  1.00  0.00    -0.359 N 
ATOM     12  C3  MOL A   1      13.856 -14.143  -3.184  1.00  0.00     0.222 C 
ATOM     13  O4  MOL A   1      14.168 -12.963  -3.502  1.00  0.00    -0.275 OA
ENDBRANCH   9  12
ENDBRANCH   8   9
BRANCH   8  14
ATOM     14  N7  MOL A   1      13.673 -16.196  -6.380  1.00  0.00    -0.346 N 
ATOM     15  C8  MOL A   1      14.102 -16.166  -7.743  1.00  0.00     0.258 C 
ATOM     16  O9  MOL A   1      15.034 -15.396  -8.099  1.00  0.00    -0.271 OA
BRANCH  15  17
ATOM     17 C10  MOL A   1      13.459 -17.059  -8.760  1.00  0.00     0.167 C 
BRANCH  17  18
ATOM     18 O11  MOL A   1      14.028 -18.365  -8.708  1.00  0.00    -0.480 OA
BRANCH  18  19
ATOM     19 C12  MOL A   1      13.651 -19.301  -7.741  1.00  0.00     0.166 A 
ATOM     20 C13  MOL A   1      12.321 -19.776  -7.663  1.00  0.00     0.012 A 
ATOM     21 C21  MOL A   1      12.005 -20.774  -6.727  1.00  0.00    -0.054 A 
ATOM     22 C22  MOL A   1      12.977 -21.258  -5.851  1.00  0.00    -0.058 A 
ATOM     23 C23  MOL A   1      14.276 -20.752  -5.897  1.00  0.00    -0.016 A 
ATOM     24 C24  MOL A   1      14.622 -19.766  -6.839  1.00  0.00     0.161 A 
BRANCH  20  25
ATOM     25 C14  MOL A   1      11.229 -19.237  -8.559  1.00  0.00     0.028 C 
BRANCH  25  26
ATOM     26 N15  MOL A   1      10.155 -18.623  -7.751  1.00  0.00    -0.287 NA
ATOM     27 C16  MOL A   1       8.823 -18.921  -8.304  1.00  0.00     0.064 C 
ATOM     28 C17  MOL A   1       8.564 -17.470  -8.657  1.00  0.00     0.272 C 
ATOM     29 F18  MOL A   1       7.545 -16.892  -7.920  1.00  0.00    -0.204 F 
ATOM     30 F19  MOL A   1       8.473 -17.235 -10.020  1.00  0.00    -0.204 F 
ATOM     31 C20  MOL A   1       9.945 -17.205  -8.091  1.00  0.00     0.064 C 
ENDBRANCH  25  26
ENDBRANCH  20  25
BRANCH  24  32
ATOM     32 O25  MOL A   1      15.916 -19.230  -6.917  1.00  0.00    -0.493 OA
ATOM     33 C26  MOL A   1      17.102 -19.936  -6.568  1.00  0.00     0.078 C 
ENDBRANCH  24  32
ENDBRANCH  18  19
ENDBRANCH  17  18
ENDBRANCH  15  17
ENDBRANCH   8  14
ENDBRANCH   1   8
TORSDOF 10
ENDMDL
MODEL 234
REMARK VINA RESULT:    -7.295      5.478      8.867
REMARK INTER + INTRA:         -12.608
REMARK INTER:                 -11.194
REMARK INTRA:                  -1.414
REMARK UNBOUND:                -1.048
REMARK  10 active torsions:
REMARK  status: ('A' for Active; 'I' for Inactive)
REMARK   1   A    between atoms:  C27_1   and   C6_8  
REMARK   2   A    between atoms:  C6_8    and   C5_9  
REMARK   3   A    between atoms:  C5_9    and   C3_12 
REMARK   4   A    between atoms:  C6_8    and   N7_14 
REMARK   5   A    between atoms:  C8_15   and  C10_17 
REMARK   6   A    between atoms: C10_17   and  O11_18 
REMARK   7   A    between atoms: O11_18   and  C12_19 
REMARK   8   A    between atoms: C13_20   and  C14_25 
REMARK   9   A    between atoms: C14_25   and  N15_26 
REMARK   10  A    between atoms: C24_24   and  O25_32 
ROOT
ATOM      1 C27  MOL A   1      15.042 -18.416  -8.188  1.00  0.00    -0.024 A 
ATOM      2 C28  MOL A   1      14.845 -17.227  -7.462  1.00  0.00    -0.057 A 
ATOM      3 C29  MOL A   1      15.680 -16.124  -7.670  1.00  0.00    -0.061 A 
ATOM      4 C30  MOL A   1      16.717 -16.196  -8.604  1.00  0.00    -0.048 A 
ATOM      5 C31  MOL A   1      16.922 -17.372  -9.335  1.00  0.00     0.018 A 
ATOM      6 Br32 MOL A   1      18.329 -17.463 -10.629  1.00  0.00    -0.051 Br
ATOM      7 C33  MOL A   1      16.092 -18.478  -9.125  1.00  0.00    -0.043 A 
ENDROOT
BRANCH   1   8
ATOM      8  C6  MOL A   1      14.180 -19.628  -7.904  1.00  0.00     0.063 C 
BRANCH   8   9
ATOM      9  C5  MOL A   1      14.922 -20.911  -8.321  1.00  0.00     0.051 C 
BRANCH   9  12
ATOM     10  C1  MOL A   1      13.248 -24.116  -6.873  1.00  0.00     0.006 C 
ATOM     11  N2  MOL A   1      13.574 -22.991  -7.738  1.00  0.00    -0.359 N 
ATOM     12  C3  MOL A   1      14.603 -22.054  -7.402  1.00  0.00     0.222 C 
ATOM     13  O4  MOL A   1      15.252 -22.186  -6.329  1.00  0.00    -0.275 OA
ENDBRANCH   9  12
ENDBRANCH   8   9
BRANCH   8  14
ATOM     14  N7  MOL A   1      12.900 -19.518  -8.612  1.00  0.00    -0.346 N 
ATOM     15  C8  MOL A   1      11.654 -19.866  -8.005  1.00  0.00     0.258 C 
ATOM     16  O9  MOL A   1      11.622 -20.296  -6.821  1.00  0.00    -0.271 OA
BRANCH  15  17
ATOM     17 C10  MOL A   1      10.371 -19.711  -8.765  1.00  0.00     0.167 C 
BRANCH  17  18
ATOM     18 O11  MOL A   1       9.343 -20.503  -8.176  1.00  0.00    -0.480 OA
BRANCH  18  19
ATOM     19 C12  MOL A   1       8.345 -21.111  -8.941  1.00  0.00     0.166 A 
ATOM     20 C13  MOL A   1       7.062 -20.529  -9.066  1.00  0.00     0.012 A 
ATOM     21 C21  MOL A   1       6.115 -21.133  -9.910  1.00  0.00    -0.054 A 
ATOM     22 C22  MOL A   1       6.417 -22.319 -10.579  1.00  0.00    -0.058 A 
ATOM     23 C23  MOL A   1       7.666 -22.918 -10.415  1.00  0.00    -0.016 A 
ATOM     24 C24  MOL A   1       8.638 -22.321  -9.591  1.00  0.00     0.161 A 
BRANCH  20  25
ATOM     25 C14  MOL A   1       6.680 -19.273  -8.314  1.00  0.00     0.028 C 
BRANCH  25  26
ATOM     26 N15  MOL A   1       6.389 -18.175  -9.259  1.00  0.00    -0.287 NA
ATOM     27 C16  MOL A   1       7.530 -17.912 -10.153  1.00  0.00     0.064 C 
ATOM     28 C17  MOL A   1       7.769 -16.537  -9.563  1.00  0.00     0.272 C 
ATOM     29 F18  MOL A   1       7.519 -15.502 -10.447  1.00  0.00    -0.204 F 
ATOM     30 F19  MOL A   1       8.975 -16.421  -8.890  1.00  0.00    -0.204 F 
ATOM     31 C20  MOL A   1       6.599 -16.850  -8.651  1.00  0.00     0.064 C 
ENDBRANCH  25  26
ENDBRANCH  20  25
BRANCH  24  32
ATOM     32 O25  MOL A   1       9.904 -22.892  -9.399  1.00  0.00    -0.493 OA
ATOM     33 C26  MOL A   1      10.156 -24.292  -9.335  1.00  0.00     0.078 C 
ENDBRANCH  24  32
ENDBRANCH  18  19
ENDBRANCH  17  18
ENDBRANCH  15  17
ENDBRANCH   8  14
ENDBRANCH   1   8
TORSDOF 10
ENDMDL
MODEL 235
REMARK VINA RESULT:    -7.294      5.031     10.101
REMARK INTER + INTRA:         -12.606
REMARK INTER:                 -11.441
REMARK INTRA:                  -1.165
REMARK UNBOUND:                -1.048
REMARK  10 active torsions:
REMARK  status: ('A' for Active; 'I' for Inactive)
REMARK   1   A    between atoms:  C27_1   and   C6_8  
REMARK   2   A    between atoms:  C6_8    and   C5_9  
REMARK   3   A    between atoms:  C5_9    and   C3_12 
REMARK   4   A    between atoms:  C6_8    and   N7_14 
REMARK   5   A    between atoms:  C8_15   and  C10_17 
REMARK   6   A    between atoms: C10_17   and  O11_18 
REMARK   7   A    between atoms: O11_18   and  C12_19 
REMARK   8   A    between atoms: C13_20   and  C14_25 
REMARK   9   A    between atoms: C14_25   and  N15_26 
REMARK   10  A    between atoms: C24_24   and  O25_32 
ROOT
ATOM      1 C27  MOL A   1       7.832 -20.171 -10.369  1.00  0.00    -0.024 A 
ATOM      2 C28  MOL A   1       8.652 -21.272 -10.679  1.00  0.00    -0.057 A 
ATOM      3 C29  MOL A   1       8.116 -22.564 -10.720  1.00  0.00    -0.061 A 
ATOM      4 C30  MOL A   1       6.760 -22.769 -10.451  1.00  0.00    -0.048 A 
ATOM      5 C31  MOL A   1       5.933 -21.683 -10.145  1.00  0.00     0.018 A 
ATOM      6 Br32 MOL A   1       4.072 -21.962  -9.800  1.00  0.00    -0.051 Br
ATOM      7 C33  MOL A   1       6.466 -20.390 -10.098  1.00  0.00    -0.043 A 
ENDROOT
BRANCH   1   8
ATOM      8  C6  MOL A   1       8.434 -18.787 -10.255  1.00  0.00     0.063 C 
BRANCH   8   9
ATOM      9  C5  MOL A   1       8.121 -17.971 -11.522  1.00  0.00     0.051 C 
BRANCH   9  12
ATOM     10  C1  MOL A   1       5.475 -15.133 -11.863  1.00  0.00     0.006 C 
ATOM     11  N2  MOL A   1       6.309 -16.292 -12.143  1.00  0.00    -0.359 N 
ATOM     12  C3  MOL A   1       7.283 -16.765 -11.207  1.00  0.00     0.222 C 
ATOM     13  O4  MOL A   1       7.442 -16.171 -10.106  1.00  0.00    -0.275 OA
ENDBRANCH   9  12
ENDBRANCH   8   9
BRANCH   8  14
ATOM     14  N7  MOL A   1       9.883 -18.879 -10.045  1.00  0.00    -0.346 N 
ATOM     15  C8  MOL A   1      10.469 -18.935  -8.742  1.00  0.00     0.258 C 
ATOM     16  O9  MOL A   1       9.740 -18.896  -7.716  1.00  0.00    -0.271 OA
BRANCH  15  17
ATOM     17 C10  MOL A   1      11.955 -19.054  -8.584  1.00  0.00     0.167 C 
BRANCH  17  18
ATOM     18 O11  MOL A   1      12.289 -19.368  -7.234  1.00  0.00    -0.480 OA
BRANCH  18  19
ATOM     19 C12  MOL A   1      13.413 -20.132  -6.906  1.00  0.00     0.166 A 
ATOM     20 C13  MOL A   1      14.595 -19.524  -6.425  1.00  0.00     0.012 A 
ATOM     21 C21  MOL A   1      15.672 -20.336  -6.033  1.00  0.00    -0.054 A 
ATOM     22 C22  MOL A   1      15.597 -21.723  -6.162  1.00  0.00    -0.058 A 
ATOM     23 C23  MOL A   1      14.448 -22.317  -6.685  1.00  0.00    -0.016 A 
ATOM     24 C24  MOL A   1      13.349 -21.526  -7.065  1.00  0.00     0.161 A 
BRANCH  20  25
ATOM     25 C14  MOL A   1      14.733 -18.021  -6.321  1.00  0.00     0.028 C 
BRANCH  25  26
ATOM     26 N15  MOL A   1      15.225 -17.459  -7.596  1.00  0.00    -0.287 NA
ATOM     27 C16  MOL A   1      16.647 -17.087  -7.510  1.00  0.00     0.064 C 
ATOM     28 C17  MOL A   1      16.346 -15.610  -7.669  1.00  0.00     0.272 C 
ATOM     29 F18  MOL A   1      16.822 -15.070  -8.851  1.00  0.00    -0.204 F 
ATOM     30 F19  MOL A   1      16.647 -14.856  -6.546  1.00  0.00    -0.204 F 
ATOM     31 C20  MOL A   1      14.892 -16.032  -7.739  1.00  0.00     0.064 C 
ENDBRANCH  25  26
ENDBRANCH  20  25
BRANCH  24  32
ATOM     32 O25  MOL A   1      12.176 -22.084  -7.595  1.00  0.00    -0.493 OA
ATOM     33 C26  MOL A   1      12.060 -23.426  -8.056  1.00  0.00     0.078 C 
ENDBRANCH  24  32
ENDBRANCH  18  19
ENDBRANCH  17  18
ENDBRANCH  15  17
ENDBRANCH   8  14
ENDBRANCH   1   8
TORSDOF 10
ENDMDL
MODEL 236
REMARK VINA RESULT:    -7.293      5.633      8.858
REMARK INTER + INTRA:         -12.605
REMARK INTER:                 -11.356
REMARK INTRA:                  -1.249
REMARK UNBOUND:                -1.048
REMARK  10 active torsions:
REMARK  status: ('A' for Active; 'I' for Inactive)
REMARK   1   A    between atoms:  C27_1   and   C6_8  
REMARK   2   A    between atoms:  C6_8    and   C5_9  
REMARK   3   A    between atoms:  C5_9    and   C3_12 
REMARK   4   A    between atoms:  C6_8    and   N7_14 
REMARK   5   A    between atoms:  C8_15   and  C10_17 
REMARK   6   A    between atoms: C10_17   and  O11_18 
REMARK   7   A    between atoms: O11_18   and  C12_19 
REMARK   8   A    between atoms: C13_20   and  C14_25 
REMARK   9   A    between atoms: C14_25   and  N15_26 
REMARK   10  A    between atoms: C24_24   and  O25_32 
ROOT
ATOM      1 C27  MOL A   1      14.680 -18.590  -7.055  1.00  0.00    -0.024 A 
ATOM      2 C28  MOL A   1      15.797 -19.350  -6.664  1.00  0.00    -0.057 A 
ATOM      3 C29  MOL A   1      17.071 -18.771  -6.634  1.00  0.00    -0.061 A 
ATOM      4 C30  MOL A   1      17.241 -17.431  -6.993  1.00  0.00    -0.048 A 
ATOM      5 C31  MOL A   1      16.137 -16.664  -7.381  1.00  0.00     0.018 A 
ATOM      6 Br32 MOL A   1      16.367 -14.824  -7.852  1.00  0.00    -0.051 Br
ATOM      7 C33  MOL A   1      14.863 -17.240  -7.418  1.00  0.00    -0.043 A 
ENDROOT
BRANCH   1   8
ATOM      8  C6  MOL A   1      13.318 -19.243  -7.155  1.00  0.00     0.063 C 
BRANCH   8   9
ATOM      9  C5  MOL A   1      13.396 -20.491  -8.053  1.00  0.00     0.051 C 
BRANCH   9  12
ATOM     10  C1  MOL A   1      12.346 -24.171  -7.329  1.00  0.00     0.006 C 
ATOM     11  N2  MOL A   1      12.742 -22.952  -8.019  1.00  0.00    -0.359 N 
ATOM     12  C3  MOL A   1      12.978 -21.729  -7.314  1.00  0.00     0.222 C 
ATOM     13  O4  MOL A   1      12.840 -21.684  -6.061  1.00  0.00    -0.275 OA
ENDBRANCH   9  12
ENDBRANCH   8   9
BRANCH   8  14
ATOM     14  N7  MOL A   1      12.334 -18.290  -7.679  1.00  0.00    -0.346 N 
ATOM     15  C8  MOL A   1      10.933 -18.415  -7.430  1.00  0.00     0.258 C 
ATOM     16  O9  MOL A   1      10.493 -19.376  -6.745  1.00  0.00    -0.271 OA
BRANCH  15  17
ATOM     17 C10  MOL A   1       9.973 -17.397  -7.968  1.00  0.00     0.167 C 
BRANCH  17  18
ATOM     18 O11  MOL A   1       8.793 -18.032  -8.454  1.00  0.00    -0.480 OA
BRANCH  18  19
ATOM     19 C12  MOL A   1       8.242 -17.720  -9.700  1.00  0.00     0.166 A 
ATOM     20 C13  MOL A   1       8.684 -18.366 -10.878  1.00  0.00     0.012 A 
ATOM     21 C21  MOL A   1       8.049 -18.078 -12.097  1.00  0.00    -0.054 A 
ATOM     22 C22  MOL A   1       7.025 -17.132 -12.156  1.00  0.00    -0.058 A 
ATOM     23 C23  MOL A   1       6.625 -16.460 -11.002  1.00  0.00    -0.016 A 
ATOM     24 C24  MOL A   1       7.233 -16.745  -9.765  1.00  0.00     0.161 A 
BRANCH  20  25
ATOM     25 C14  MOL A   1       9.826 -19.358 -10.861  1.00  0.00     0.028 C 
BRANCH  25  26
ATOM     26 N15  MOL A   1       9.308 -20.741 -10.845  1.00  0.00    -0.287 NA
ATOM     27 C16  MOL A   1       7.908 -20.789 -10.390  1.00  0.00     0.064 C 
ATOM     28 C17  MOL A   1       8.268 -21.549  -9.128  1.00  0.00     0.272 C 
ATOM     29 F18  MOL A   1       7.769 -22.839  -9.095  1.00  0.00    -0.204 F 
ATOM     30 F19  MOL A   1       8.048 -20.832  -7.964  1.00  0.00    -0.204 F 
ATOM     31 C20  MOL A   1       9.698 -21.467  -9.624  1.00  0.00     0.064 C 
ENDBRANCH  25  26
ENDBRANCH  20  25
BRANCH  24  32
ATOM     32 O25  MOL A   1       6.860 -16.091  -8.582  1.00  0.00    -0.493 OA
ATOM     33 C26  MOL A   1       5.823 -16.530  -7.712  1.00  0.00     0.078 C 
ENDBRANCH  24  32
ENDBRANCH  18  19
ENDBRANCH  17  18
ENDBRANCH  15  17
ENDBRANCH   8  14
ENDBRANCH   1   8
TORSDOF 10
ENDMDL
MODEL 237
REMARK VINA RESULT:    -7.290      8.109     11.743
REMARK INTER + INTRA:         -12.600
REMARK INTER:                 -10.821
REMARK INTRA:                  -1.779
REMARK UNBOUND:                -1.048
REMARK  10 active torsions:
REMARK  status: ('A' for Active; 'I' for Inactive)
REMARK   1   A    between atoms:  C27_1   and   C6_8  
REMARK   2   A    between atoms:  C6_8    and   C5_9  
REMARK   3   A    between atoms:  C5_9    and   C3_12 
REMARK   4   A    between atoms:  C6_8    and   N7_14 
REMARK   5   A    between atoms:  C8_15   and  C10_17 
REMARK   6   A    between atoms: C10_17   and  O11_18 
REMARK   7   A    between atoms: O11_18   and  C12_19 
REMARK   8   A    between atoms: C13_20   and  C14_25 
REMARK   9   A    between atoms: C14_25   and  N15_26 
REMARK   10  A    between atoms: C24_24   and  O25_32 
ROOT
ATOM      1 C27  MOL A   1      17.444 -18.671  -4.572  1.00  0.00    -0.024 A 
ATOM      2 C28  MOL A   1      17.981 -17.373  -4.481  1.00  0.00    -0.057 A 
ATOM      3 C29  MOL A   1      17.653 -16.546  -3.401  1.00  0.00    -0.061 A 
ATOM      4 C30  MOL A   1      16.788 -17.005  -2.403  1.00  0.00    -0.048 A 
ATOM      5 C31  MOL A   1      16.250 -18.294  -2.480  1.00  0.00     0.018 A 
ATOM      6 Br32 MOL A   1      15.084 -18.929  -1.103  1.00  0.00    -0.051 Br
ATOM      7 C33  MOL A   1      16.571 -19.122  -3.561  1.00  0.00    -0.043 A 
ENDROOT
BRANCH   1   8
ATOM      8  C6  MOL A   1      17.745 -19.532  -5.779  1.00  0.00     0.063 C 
BRANCH   8   9
ATOM      9  C5  MOL A   1      19.067 -19.084  -6.430  1.00  0.00     0.051 C 
BRANCH   9  12
ATOM     10  C1  MOL A   1      20.026 -20.490  -9.933  1.00  0.00     0.006 C 
ATOM     11  N2  MOL A   1      19.600 -19.595  -8.867  1.00  0.00    -0.359 N 
ATOM     12  C3  MOL A   1      19.499 -20.034  -7.509  1.00  0.00     0.222 C 
ATOM     13  O4  MOL A   1      19.777 -21.227  -7.207  1.00  0.00    -0.275 OA
ENDBRANCH   9  12
ENDBRANCH   8   9
BRANCH   8  14
ATOM     14  N7  MOL A   1      16.643 -19.457  -6.744  1.00  0.00    -0.346 N 
ATOM     15  C8  MOL A   1      15.663 -20.489  -6.874  1.00  0.00     0.258 C 
ATOM     16  O9  MOL A   1      15.726 -21.519  -6.152  1.00  0.00    -0.271 OA
BRANCH  15  17
ATOM     17 C10  MOL A   1      14.541 -20.350  -7.859  1.00  0.00     0.167 C 
BRANCH  17  18
ATOM     18 O11  MOL A   1      13.288 -20.283  -7.182  1.00  0.00    -0.480 OA
BRANCH  18  19
ATOM     19 C12  MOL A   1      12.315 -19.337  -7.515  1.00  0.00     0.166 A 
ATOM     20 C13  MOL A   1      12.530 -17.958  -7.293  1.00  0.00     0.012 A 
ATOM     21 C21  MOL A   1      11.558 -17.035  -7.715  1.00  0.00    -0.054 A 
ATOM     22 C22  MOL A   1      10.373 -17.476  -8.303  1.00  0.00    -0.058 A 
ATOM     23 C23  MOL A   1      10.141 -18.841  -8.476  1.00  0.00    -0.016 A 
ATOM     24 C24  MOL A   1      11.108 -19.782  -8.079  1.00  0.00     0.161 A 
BRANCH  20  25
ATOM     25 C14  MOL A   1      13.779 -17.446  -6.610  1.00  0.00     0.028 C 
BRANCH  25  26
ATOM     26 N15  MOL A   1      14.083 -16.070  -7.053  1.00  0.00    -0.287 NA
ATOM     27 C16  MOL A   1      14.971 -16.063  -8.228  1.00  0.00     0.064 C 
ATOM     28 C17  MOL A   1      16.108 -15.423  -7.457  1.00  0.00     0.272 C 
ATOM     29 F18  MOL A   1      16.413 -14.141  -7.879  1.00  0.00    -0.204 F 
ATOM     30 F19  MOL A   1      17.214 -16.244  -7.311  1.00  0.00    -0.204 F 
ATOM     31 C20  MOL A   1      15.169 -15.460  -6.267  1.00  0.00     0.064 C 
ENDBRANCH  25  26
ENDBRANCH  20  25
BRANCH  24  32
ATOM     32 O25  MOL A   1      10.913 -21.162  -8.234  1.00  0.00    -0.493 OA
ATOM     33 C26  MOL A   1      10.055 -21.750  -9.206  1.00  0.00     0.078 C 
ENDBRANCH  24  32
ENDBRANCH  18  19
ENDBRANCH  17  18
ENDBRANCH  15  17
ENDBRANCH   8  14
ENDBRANCH   1   8
TORSDOF 10
ENDMDL
MODEL 238
REMARK VINA RESULT:    -7.289      5.202      9.740
REMARK INTER + INTRA:         -12.598
REMARK INTER:                 -12.229
REMARK INTRA:                  -0.370
REMARK UNBOUND:                -1.048
REMARK  10 active torsions:
REMARK  status: ('A' for Active; 'I' for Inactive)
REMARK   1   A    between atoms:  C27_1   and   C6_8  
REMARK   2   A    between atoms:  C6_8    and   C5_9  
REMARK   3   A    between atoms:  C5_9    and   C3_12 
REMARK   4   A    between atoms:  C6_8    and   N7_14 
REMARK   5   A    between atoms:  C8_15   and  C10_17 
REMARK   6   A    between atoms: C10_17   and  O11_18 
REMARK   7   A    between atoms: O11_18   and  C12_19 
REMARK   8   A    between atoms: C13_20   and  C14_25 
REMARK   9   A    between atoms: C14_25   and  N15_26 
REMARK   10  A    between atoms: C24_24   and  O25_32 
ROOT
ATOM      1 C27  MOL A   1       7.487 -18.353  -9.673  1.00  0.00    -0.024 A 
ATOM      2 C28  MOL A   1       7.513 -17.557 -10.832  1.00  0.00    -0.057 A 
ATOM      3 C29  MOL A   1       6.815 -16.345 -10.875  1.00  0.00    -0.061 A 
ATOM      4 C30  MOL A   1       6.085 -15.918  -9.762  1.00  0.00    -0.048 A 
ATOM      5 C31  MOL A   1       6.053 -16.698  -8.601  1.00  0.00     0.018 A 
ATOM      6 Br32 MOL A   1       5.072 -16.101  -7.072  1.00  0.00    -0.051 Br
ATOM      7 C33  MOL A   1       6.745 -17.913  -8.558  1.00  0.00    -0.043 A 
ENDROOT
BRANCH   1   8
ATOM      8  C6  MOL A   1       8.184 -19.696  -9.661  1.00  0.00     0.063 C 
BRANCH   8   9
ATOM      9  C5  MOL A   1       7.946 -20.402  -8.313  1.00  0.00     0.051 C 
BRANCH   9  12
ATOM     10  C1  MOL A   1       4.480 -21.850  -7.284  1.00  0.00     0.006 C 
ATOM     11  N2  MOL A   1       5.717 -21.083  -7.288  1.00  0.00    -0.359 N 
ATOM     12  C3  MOL A   1       6.685 -21.216  -8.334  1.00  0.00     0.222 C 
ATOM     13  O4  MOL A   1       6.482 -22.019  -9.285  1.00  0.00    -0.275 OA
ENDBRANCH   9  12
ENDBRANCH   8   9
BRANCH   8  14
ATOM     14  N7  MOL A   1       9.620 -19.525  -9.908  1.00  0.00    -0.346 N 
ATOM     15  C8  MOL A   1      10.475 -18.812  -9.012  1.00  0.00     0.258 C 
ATOM     16  O9  MOL A   1      10.005 -18.289  -7.966  1.00  0.00    -0.271 OA
BRANCH  15  17
ATOM     17 C10  MOL A   1      11.941 -18.689  -9.299  1.00  0.00     0.167 C 
BRANCH  17  18
ATOM     18 O11  MOL A   1      12.679 -18.570  -8.085  1.00  0.00    -0.480 OA
BRANCH  18  19
ATOM     19 C12  MOL A   1      14.027 -18.927  -7.998  1.00  0.00     0.166 A 
ATOM     20 C13  MOL A   1      15.047 -17.947  -8.033  1.00  0.00     0.012 A 
ATOM     21 C21  MOL A   1      16.384 -18.344  -7.863  1.00  0.00    -0.054 A 
ATOM     22 C22  MOL A   1      16.709 -19.692  -7.711  1.00  0.00    -0.058 A 
ATOM     23 C23  MOL A   1      15.706 -20.661  -7.728  1.00  0.00    -0.016 A 
ATOM     24 C24  MOL A   1      14.357 -20.286  -7.876  1.00  0.00     0.161 A 
BRANCH  20  25
ATOM     25 C14  MOL A   1      14.737 -16.482  -8.249  1.00  0.00     0.028 C 
BRANCH  25  26
ATOM     26 N15  MOL A   1      15.044 -15.705  -7.030  1.00  0.00    -0.287 NA
ATOM     27 C16  MOL A   1      14.292 -16.203  -5.866  1.00  0.00     0.064 C 
ATOM     28 C17  MOL A   1      13.482 -14.927  -5.751  1.00  0.00     0.272 C 
ATOM     29 F18  MOL A   1      13.748 -14.202  -4.602  1.00  0.00    -0.204 F 
ATOM     30 F19  MOL A   1      12.131 -15.099  -6.007  1.00  0.00    -0.204 F 
ATOM     31 C20  MOL A   1      14.268 -14.455  -6.959  1.00  0.00     0.064 C 
ENDBRANCH  25  26
ENDBRANCH  20  25
BRANCH  24  32
ATOM     32 O25  MOL A   1      13.320 -21.229  -7.900  1.00  0.00    -0.493 OA
ATOM     33 C26  MOL A   1      12.673 -21.744  -6.741  1.00  0.00     0.078 C 
ENDBRANCH  24  32
ENDBRANCH  18  19
ENDBRANCH  17  18
ENDBRANCH  15  17
ENDBRANCH   8  14
ENDBRANCH   1   8
TORSDOF 10
ENDMDL
MODEL 239
REMARK VINA RESULT:    -7.289      6.484     10.997
REMARK INTER + INTRA:         -12.598
REMARK INTER:                 -11.138
REMARK INTRA:                  -1.461
REMARK UNBOUND:                -1.048
REMARK  10 active torsions:
REMARK  status: ('A' for Active; 'I' for Inactive)
REMARK   1   A    between atoms:  C27_1   and   C6_8  
REMARK   2   A    between atoms:  C6_8    and   C5_9  
REMARK   3   A    between atoms:  C5_9    and   C3_12 
REMARK   4   A    between atoms:  C6_8    and   N7_14 
REMARK   5   A    between atoms:  C8_15   and  C10_17 
REMARK   6   A    between atoms: C10_17   and  O11_18 
REMARK   7   A    between atoms: O11_18   and  C12_19 
REMARK   8   A    between atoms: C13_20   and  C14_25 
REMARK   9   A    between atoms: C14_25   and  N15_26 
REMARK   10  A    between atoms: C24_24   and  O25_32 
ROOT
ATOM      1 C27  MOL A   1       9.040 -18.475  -9.520  1.00  0.00    -0.024 A 
ATOM      2 C28  MOL A   1       8.847 -17.480  -8.544  1.00  0.00    -0.057 A 
ATOM      3 C29  MOL A   1       8.049 -16.364  -8.820  1.00  0.00    -0.061 A 
ATOM      4 C30  MOL A   1       7.436 -16.231 -10.069  1.00  0.00    -0.048 A 
ATOM      5 C31  MOL A   1       7.617 -17.216 -11.047  1.00  0.00     0.018 A 
ATOM      6 Br32 MOL A   1       6.760 -17.043 -12.749  1.00  0.00    -0.051 Br
ATOM      7 C33  MOL A   1       8.419 -18.329 -10.777  1.00  0.00    -0.043 A 
ENDROOT
BRANCH   1   8
ATOM      8  C6  MOL A   1       9.963 -19.641  -9.240  1.00  0.00     0.063 C 
BRANCH   8   9
ATOM      9  C5  MOL A   1       9.268 -20.652  -8.310  1.00  0.00     0.051 C 
BRANCH   9  12
ATOM     10  C1  MOL A   1       5.722 -21.706  -9.530  1.00  0.00     0.006 C 
ATOM     11  N2  MOL A   1       6.804 -21.014  -8.846  1.00  0.00    -0.359 N 
ATOM     12  C3  MOL A   1       8.173 -21.393  -9.023  1.00  0.00     0.222 C 
ATOM     13  O4  MOL A   1       8.470 -22.354  -9.784  1.00  0.00    -0.275 OA
ENDBRANCH   9  12
ENDBRANCH   8   9
BRANCH   8  14
ATOM     14  N7  MOL A   1      11.215 -19.166  -8.642  1.00  0.00    -0.346 N 
ATOM     15  C8  MOL A   1      12.255 -18.561  -9.413  1.00  0.00     0.258 C 
ATOM     16  O9  MOL A   1      12.125 -18.425 -10.659  1.00  0.00    -0.271 OA
BRANCH  15  17
ATOM     17 C10  MOL A   1      13.505 -18.069  -8.747  1.00  0.00     0.167 C 
BRANCH  17  18
ATOM     18 O11  MOL A   1      13.402 -18.203  -7.331  1.00  0.00    -0.480 OA
BRANCH  18  19
ATOM     19 C12  MOL A   1      14.525 -18.172  -6.500  1.00  0.00     0.166 A 
ATOM     20 C13  MOL A   1      15.371 -19.297  -6.373  1.00  0.00     0.012 A 
ATOM     21 C21  MOL A   1      16.533 -19.196  -5.588  1.00  0.00    -0.054 A 
ATOM     22 C22  MOL A   1      16.824 -18.016  -4.904  1.00  0.00    -0.058 A 
ATOM     23 C23  MOL A   1      15.961 -16.923  -4.991  1.00  0.00    -0.016 A 
ATOM     24 C24  MOL A   1      14.802 -16.995  -5.787  1.00  0.00     0.161 A 
BRANCH  20  25
ATOM     25 C14  MOL A   1      15.060 -20.610  -7.057  1.00  0.00     0.028 C 
BRANCH  25  26
ATOM     26 N15  MOL A   1      14.494 -21.574  -6.091  1.00  0.00    -0.287 NA
ATOM     27 C16  MOL A   1      14.421 -22.931  -6.658  1.00  0.00     0.064 C 
ATOM     28 C17  MOL A   1      12.905 -22.937  -6.638  1.00  0.00     0.272 C 
ATOM     29 F18  MOL A   1      12.365 -23.851  -5.751  1.00  0.00    -0.204 F 
ATOM     30 F19  MOL A   1      12.331 -22.971  -7.899  1.00  0.00    -0.204 F 
ATOM     31 C20  MOL A   1      13.021 -21.537  -6.068  1.00  0.00     0.064 C 
ENDBRANCH  25  26
ENDBRANCH  20  25
BRANCH  24  32
ATOM     32 O25  MOL A   1      13.909 -15.920  -5.900  1.00  0.00    -0.493 OA
ATOM     33 C26  MOL A   1      14.107 -14.794  -6.749  1.00  0.00     0.078 C 
ENDBRANCH  24  32
ENDBRANCH  18  19
ENDBRANCH  17  18
ENDBRANCH  15  17
ENDBRANCH   8  14
ENDBRANCH   1   8
TORSDOF 10
ENDMDL
MODEL 240
REMARK VINA RESULT:    -7.284      7.017     10.908
REMARK INTER + INTRA:         -12.590
REMARK INTER:                 -10.809
REMARK INTRA:                  -1.782
REMARK UNBOUND:                -1.048
REMARK  10 active torsions:
REMARK  status: ('A' for Active; 'I' for Inactive)
REMARK   1   A    between atoms:  C27_1   and   C6_8  
REMARK   2   A    between atoms:  C6_8    and   C5_9  
REMARK   3   A    between atoms:  C5_9    and   C3_12 
REMARK   4   A    between atoms:  C6_8    and   N7_14 
REMARK   5   A    between atoms:  C8_15   and  C10_17 
REMARK   6   A    between atoms: C10_17   and  O11_18 
REMARK   7   A    between atoms: O11_18   and  C12_19 
REMARK   8   A    between atoms: C13_20   and  C14_25 
REMARK   9   A    between atoms: C14_25   and  N15_26 
REMARK   10  A    between atoms: C24_24   and  O25_32 
ROOT
ATOM      1 C27  MOL A   1      10.535 -18.690  -9.094  1.00  0.00    -0.024 A 
ATOM      2 C28  MOL A   1      10.483 -18.895 -10.485  1.00  0.00    -0.057 A 
ATOM      3 C29  MOL A   1       9.331 -18.565 -11.206  1.00  0.00    -0.061 A 
ATOM      4 C30  MOL A   1       8.221 -18.030 -10.547  1.00  0.00    -0.048 A 
ATOM      5 C31  MOL A   1       8.260 -17.818  -9.165  1.00  0.00     0.018 A 
ATOM      6 Br32 MOL A   1       6.748 -17.064  -8.268  1.00  0.00    -0.051 Br
ATOM      7 C33  MOL A   1       9.408 -18.151  -8.439  1.00  0.00    -0.043 A 
ENDROOT
BRANCH   1   8
ATOM      8  C6  MOL A   1      11.758 -19.117  -8.310  1.00  0.00     0.063 C 
BRANCH   8   9
ATOM      9  C5  MOL A   1      11.536 -20.515  -7.707  1.00  0.00     0.051 C 
BRANCH   9  12
ATOM     10  C1  MOL A   1      15.132 -21.958  -7.308  1.00  0.00     0.006 C 
ATOM     11  N2  MOL A   1      13.899 -21.447  -7.889  1.00  0.00    -0.359 N 
ATOM     12  C3  MOL A   1      12.790 -21.048  -7.077  1.00  0.00     0.222 C 
ATOM     13  O4  MOL A   1      12.861 -21.140  -5.821  1.00  0.00    -0.275 OA
ENDBRANCH   9  12
ENDBRANCH   8   9
BRANCH   8  14
ATOM     14  N7  MOL A   1      12.052 -18.140  -7.256  1.00  0.00    -0.346 N 
ATOM     15  C8  MOL A   1      12.819 -16.958  -7.495  1.00  0.00     0.258 C 
ATOM     16  O9  MOL A   1      13.283 -16.723  -8.643  1.00  0.00    -0.271 OA
BRANCH  15  17
ATOM     17 C10  MOL A   1      13.069 -15.979  -6.387  1.00  0.00     0.167 C 
BRANCH  17  18
ATOM     18 O11  MOL A   1      14.215 -15.182  -6.675  1.00  0.00    -0.480 OA
BRANCH  18  19
ATOM     19 C12  MOL A   1      15.432 -15.367  -6.014  1.00  0.00     0.166 A 
ATOM     20 C13  MOL A   1      16.597 -15.746  -6.720  1.00  0.00     0.012 A 
ATOM     21 C21  MOL A   1      17.816 -15.844  -6.029  1.00  0.00    -0.054 A 
ATOM     22 C22  MOL A   1      17.870 -15.617  -4.654  1.00  0.00    -0.058 A 
ATOM     23 C23  MOL A   1      16.710 -15.292  -3.950  1.00  0.00    -0.016 A 
ATOM     24 C24  MOL A   1      15.481 -15.169  -4.625  1.00  0.00     0.161 A 
BRANCH  20  25
ATOM     25 C14  MOL A   1      16.566 -16.052  -8.202  1.00  0.00     0.028 C 
BRANCH  25  26
ATOM     26 N15  MOL A   1      17.211 -17.353  -8.473  1.00  0.00    -0.287 NA
ATOM     27 C16  MOL A   1      16.996 -17.784  -9.865  1.00  0.00     0.064 C 
ATOM     28 C17  MOL A   1      16.151 -18.970  -9.443  1.00  0.00     0.272 C 
ATOM     29 F18  MOL A   1      16.737 -20.194  -9.713  1.00  0.00    -0.204 F 
ATOM     30 F19  MOL A   1      14.827 -18.882  -9.843  1.00  0.00    -0.204 F 
ATOM     31 C20  MOL A   1      16.384 -18.487  -8.025  1.00  0.00     0.064 C 
ENDBRANCH  25  26
ENDBRANCH  20  25
BRANCH  24  32
ATOM     32 O25  MOL A   1      14.292 -14.845  -3.955  1.00  0.00    -0.493 OA
ATOM     33 C26  MOL A   1      14.025 -13.583  -3.352  1.00  0.00     0.078 C 
ENDBRANCH  24  32
ENDBRANCH  18  19
ENDBRANCH  17  18
ENDBRANCH  15  17
ENDBRANCH   8  14
ENDBRANCH   1   8
TORSDOF 10
ENDMDL
MODEL 241
REMARK VINA RESULT:    -7.280      5.163     10.292
REMARK INTER + INTRA:         -12.585
REMARK INTER:                 -11.446
REMARK INTRA:                  -1.138
REMARK UNBOUND:                -1.048
REMARK  10 active torsions:
REMARK  status: ('A' for Active; 'I' for Inactive)
REMARK   1   A    between atoms:  C27_1   and   C6_8  
REMARK   2   A    between atoms:  C6_8    and   C5_9  
REMARK   3   A    between atoms:  C5_9    and   C3_12 
REMARK   4   A    between atoms:  C6_8    and   N7_14 
REMARK   5   A    between atoms:  C8_15   and  C10_17 
REMARK   6   A    between atoms: C10_17   and  O11_18 
REMARK   7   A    between atoms: O11_18   and  C12_19 
REMARK   8   A    between atoms: C13_20   and  C14_25 
REMARK   9   A    between atoms: C14_25   and  N15_26 
REMARK   10  A    between atoms: C24_24   and  O25_32 
ROOT
ATOM      1 C27  MOL A   1       7.854 -19.456  -9.095  1.00  0.00    -0.024 A 
ATOM      2 C28  MOL A   1       8.303 -20.385 -10.052  1.00  0.00    -0.057 A 
ATOM      3 C29  MOL A   1       7.693 -21.639 -10.161  1.00  0.00    -0.061 A 
ATOM      4 C30  MOL A   1       6.632 -21.979  -9.318  1.00  0.00    -0.048 A 
ATOM      5 C31  MOL A   1       6.173 -21.063  -8.364  1.00  0.00     0.018 A 
ATOM      6 Br32 MOL A   1       4.705 -21.521  -7.226  1.00  0.00    -0.051 Br
ATOM      7 C33  MOL A   1       6.783 -19.810  -8.249  1.00  0.00    -0.043 A 
ENDROOT
BRANCH   1   8
ATOM      8  C6  MOL A   1       8.565 -18.130  -8.935  1.00  0.00     0.063 C 
BRANCH   8   9
ATOM      9  C5  MOL A   1       8.351 -17.262 -10.188  1.00  0.00     0.051 C 
BRANCH   9  12
ATOM     10  C1  MOL A   1       5.338 -14.996 -11.170  1.00  0.00     0.006 C 
ATOM     11  N2  MOL A   1       6.560 -15.785 -11.236  1.00  0.00    -0.359 N 
ATOM     12  C3  MOL A   1       7.094 -16.448 -10.084  1.00  0.00     0.222 C 
ATOM     13  O4  MOL A   1       6.506 -16.354  -8.972  1.00  0.00    -0.275 OA
ENDBRANCH   9  12
ENDBRANCH   8   9
BRANCH   8  14
ATOM     14  N7  MOL A   1       9.996 -18.347  -8.695  1.00  0.00    -0.346 N 
ATOM     15  C8  MOL A   1      10.771 -17.498  -7.845  1.00  0.00     0.258 C 
ATOM     16  O9  MOL A   1      10.235 -16.512  -7.274  1.00  0.00    -0.271 OA
BRANCH  15  17
ATOM     17 C10  MOL A   1      12.225 -17.781  -7.614  1.00  0.00     0.167 C 
BRANCH  17  18
ATOM     18 O11  MOL A   1      13.032 -16.971  -8.466  1.00  0.00    -0.480 OA
BRANCH  18  19
ATOM     19 C12  MOL A   1      14.398 -16.786  -8.237  1.00  0.00     0.166 A 
ATOM     20 C13  MOL A   1      15.340 -17.780  -8.589  1.00  0.00     0.012 A 
ATOM     21 C21  MOL A   1      16.709 -17.520  -8.414  1.00  0.00    -0.054 A 
ATOM     22 C22  MOL A   1      17.135 -16.315  -7.855  1.00  0.00    -0.058 A 
ATOM     23 C23  MOL A   1      16.201 -15.356  -7.462  1.00  0.00    -0.016 A 
ATOM     24 C24  MOL A   1      14.825 -15.586  -7.646  1.00  0.00     0.161 A 
BRANCH  20  25
ATOM     25 C14  MOL A   1      14.913 -19.119  -9.149  1.00  0.00     0.028 C 
BRANCH  25  26
ATOM     26 N15  MOL A   1      15.426 -20.218  -8.305  1.00  0.00    -0.287 NA
ATOM     27 C16  MOL A   1      14.601 -21.431  -8.435  1.00  0.00     0.064 C 
ATOM     28 C17  MOL A   1      14.129 -21.352  -6.997  1.00  0.00     0.272 C 
ATOM     29 F18  MOL A   1      14.588 -22.389  -6.203  1.00  0.00    -0.204 F 
ATOM     30 F19  MOL A   1      12.772 -21.106  -6.868  1.00  0.00    -0.204 F 
ATOM     31 C20  MOL A   1      14.980 -20.100  -6.907  1.00  0.00     0.064 C 
ENDBRANCH  25  26
ENDBRANCH  20  25
BRANCH  24  32
ATOM     32 O25  MOL A   1      13.855 -14.648  -7.263  1.00  0.00    -0.493 OA
ATOM     33 C26  MOL A   1      13.077 -14.734  -6.074  1.00  0.00     0.078 C 
ENDBRANCH  24  32
ENDBRANCH  18  19
ENDBRANCH  17  18
ENDBRANCH  15  17
ENDBRANCH   8  14
ENDBRANCH   1   8
TORSDOF 10
ENDMDL
MODEL 242
REMARK VINA RESULT:    -7.279      6.799     10.715
REMARK INTER + INTRA:         -12.582
REMARK INTER:                 -11.316
REMARK INTRA:                  -1.266
REMARK UNBOUND:                -1.048
REMARK  10 active torsions:
REMARK  status: ('A' for Active; 'I' for Inactive)
REMARK   1   A    between atoms:  C27_1   and   C6_8  
REMARK   2   A    between atoms:  C6_8    and   C5_9  
REMARK   3   A    between atoms:  C5_9    and   C3_12 
REMARK   4   A    between atoms:  C6_8    and   N7_14 
REMARK   5   A    between atoms:  C8_15   and  C10_17 
REMARK   6   A    between atoms: C10_17   and  O11_18 
REMARK   7   A    between atoms: O11_18   and  C12_19 
REMARK   8   A    between atoms: C13_20   and  C14_25 
REMARK   9   A    between atoms: C14_25   and  N15_26 
REMARK   10  A    between atoms: C24_24   and  O25_32 
ROOT
ATOM      1 C27  MOL A   1       9.507 -18.752  -8.407  1.00  0.00    -0.024 A 
ATOM      2 C28  MOL A   1       8.636 -19.839  -8.209  1.00  0.00    -0.057 A 
ATOM      3 C29  MOL A   1       7.312 -19.776  -8.658  1.00  0.00    -0.061 A 
ATOM      4 C30  MOL A   1       6.846 -18.629  -9.307  1.00  0.00    -0.048 A 
ATOM      5 C31  MOL A   1       7.703 -17.542  -9.513  1.00  0.00     0.018 A 
ATOM      6 Br32 MOL A   1       7.069 -15.982 -10.421  1.00  0.00    -0.051 Br
ATOM      7 C33  MOL A   1       9.025 -17.600  -9.061  1.00  0.00    -0.043 A 
ENDROOT
BRANCH   1   8
ATOM      8  C6  MOL A   1      10.915 -18.800  -7.855  1.00  0.00     0.063 C 
BRANCH   8   9
ATOM      9  C5  MOL A   1      11.091 -20.045  -6.966  1.00  0.00     0.051 C 
BRANCH   9  12
ATOM     10  C1  MOL A   1      14.554 -21.413  -8.108  1.00  0.00     0.006 C 
ATOM     11  N2  MOL A   1      13.509 -20.540  -7.595  1.00  0.00    -0.359 N 
ATOM     12  C3  MOL A   1      12.145 -20.966  -7.510  1.00  0.00     0.222 C 
ATOM     13  O4  MOL A   1      11.818 -22.123  -7.891  1.00  0.00    -0.275 OA
ENDBRANCH   9  12
ENDBRANCH   8   9
BRANCH   8  14
ATOM     14  N7  MOL A   1      11.206 -17.579  -7.097  1.00  0.00    -0.346 N 
ATOM     15  C8  MOL A   1      12.420 -16.842  -7.260  1.00  0.00     0.258 C 
ATOM     16  O9  MOL A   1      13.298 -17.238  -8.072  1.00  0.00    -0.271 OA
BRANCH  15  17
ATOM     17 C10  MOL A   1      12.655 -15.585  -6.478  1.00  0.00     0.167 C 
BRANCH  17  18
ATOM     18 O11  MOL A   1      13.886 -14.980  -6.865  1.00  0.00    -0.480 OA
BRANCH  18  19
ATOM     19 C12  MOL A   1      15.059 -15.145  -6.123  1.00  0.00     0.166 A 
ATOM     20 C13  MOL A   1      16.274 -15.510  -6.746  1.00  0.00     0.012 A 
ATOM     21 C21  MOL A   1      17.444 -15.587  -5.974  1.00  0.00    -0.054 A 
ATOM     22 C22  MOL A   1      17.402 -15.354  -4.599  1.00  0.00    -0.058 A 
ATOM     23 C23  MOL A   1      16.193 -15.043  -3.978  1.00  0.00    -0.016 A 
ATOM     24 C24  MOL A   1      15.011 -14.940  -4.734  1.00  0.00     0.161 A 
BRANCH  20  25
ATOM     25 C14  MOL A   1      16.348 -15.823  -8.225  1.00  0.00     0.028 C 
BRANCH  25  26
ATOM     26 N15  MOL A   1      17.243 -16.973  -8.464  1.00  0.00    -0.287 NA
ATOM     27 C16  MOL A   1      17.243 -17.373  -9.882  1.00  0.00     0.064 C 
ATOM     28 C17  MOL A   1      16.594 -18.710  -9.580  1.00  0.00     0.272 C 
ATOM     29 F18  MOL A   1      17.419 -19.795  -9.821  1.00  0.00    -0.204 F 
ATOM     30 F19  MOL A   1      15.321 -18.844 -10.109  1.00  0.00    -0.204 F 
ATOM     31 C20  MOL A   1      16.600 -18.256  -8.133  1.00  0.00     0.064 C 
ENDBRANCH  25  26
ENDBRANCH  20  25
BRANCH  24  32
ATOM     32 O25  MOL A   1      13.775 -14.630  -4.147  1.00  0.00    -0.493 OA
ATOM     33 C26  MOL A   1      13.614 -13.811  -2.994  1.00  0.00     0.078 C 
ENDBRANCH  24  32
ENDBRANCH  18  19
ENDBRANCH  17  18
ENDBRANCH  15  17
ENDBRANCH   8  14
ENDBRANCH   1   8
TORSDOF 10
ENDMDL
MODEL 243
REMARK VINA RESULT:    -7.276      7.652     11.201
REMARK INTER + INTRA:         -12.578
REMARK INTER:                 -10.276
REMARK INTRA:                  -2.302
REMARK UNBOUND:                -1.048
REMARK  10 active torsions:
REMARK  status: ('A' for Active; 'I' for Inactive)
REMARK   1   A    between atoms:  C27_1   and   C6_8  
REMARK   2   A    between atoms:  C6_8    and   C5_9  
REMARK   3   A    between atoms:  C5_9    and   C3_12 
REMARK   4   A    between atoms:  C6_8    and   N7_14 
REMARK   5   A    between atoms:  C8_15   and  C10_17 
REMARK   6   A    between atoms: C10_17   and  O11_18 
REMARK   7   A    between atoms: O11_18   and  C12_19 
REMARK   8   A    between atoms: C13_20   and  C14_25 
REMARK   9   A    between atoms: C14_25   and  N15_26 
REMARK   10  A    between atoms: C24_24   and  O25_32 
ROOT
ATOM      1 C27  MOL A   1      17.354 -19.101  -6.382  1.00  0.00    -0.024 A 
ATOM      2 C28  MOL A   1      18.429 -18.195  -6.354  1.00  0.00    -0.057 A 
ATOM      3 C29  MOL A   1      18.689 -17.439  -5.206  1.00  0.00    -0.061 A 
ATOM      4 C30  MOL A   1      17.878 -17.580  -4.076  1.00  0.00    -0.048 A 
ATOM      5 C31  MOL A   1      16.807 -18.481  -4.089  1.00  0.00     0.018 A 
ATOM      6 Br32 MOL A   1      15.712 -18.689  -2.534  1.00  0.00    -0.051 Br
ATOM      7 C33  MOL A   1      16.542 -19.234  -5.237  1.00  0.00    -0.043 A 
ENDROOT
BRANCH   1   8
ATOM      8  C6  MOL A   1      17.036 -19.861  -7.652  1.00  0.00     0.063 C 
BRANCH   8   9
ATOM      9  C5  MOL A   1      17.975 -19.409  -8.785  1.00  0.00     0.051 C 
BRANCH   9  12
ATOM     10  C1  MOL A   1      19.175 -23.040  -9.528  1.00  0.00     0.006 C 
ATOM     11  N2  MOL A   1      18.418 -21.907  -9.015  1.00  0.00    -0.359 N 
ATOM     12  C3  MOL A   1      18.782 -20.556  -9.321  1.00  0.00     0.222 C 
ATOM     13  O4  MOL A   1      19.784 -20.321 -10.049  1.00  0.00    -0.275 OA
ENDBRANCH   9  12
ENDBRANCH   8   9
BRANCH   8  14
ATOM     14  N7  MOL A   1      15.634 -19.655  -8.030  1.00  0.00    -0.346 N 
ATOM     15  C8  MOL A   1      14.653 -20.690  -7.940  1.00  0.00     0.258 C 
ATOM     16  O9  MOL A   1      14.976 -21.838  -7.533  1.00  0.00    -0.271 OA
BRANCH  15  17
ATOM     17 C10  MOL A   1      13.227 -20.418  -8.315  1.00  0.00     0.167 C 
BRANCH  17  18
ATOM     18 O11  MOL A   1      13.083 -19.084  -8.798  1.00  0.00    -0.480 OA
BRANCH  18  19
ATOM     19 C12  MOL A   1      12.052 -18.246  -8.365  1.00  0.00     0.166 A 
ATOM     20 C13  MOL A   1      12.271 -17.279  -7.356  1.00  0.00     0.012 A 
ATOM     21 C21  MOL A   1      11.228 -16.405  -7.008  1.00  0.00    -0.054 A 
ATOM     22 C22  MOL A   1       9.977 -16.518  -7.614  1.00  0.00    -0.058 A 
ATOM     23 C23  MOL A   1       9.749 -17.505  -8.573  1.00  0.00    -0.016 A 
ATOM     24 C24  MOL A   1      10.784 -18.380  -8.952  1.00  0.00     0.161 A 
BRANCH  20  25
ATOM     25 C14  MOL A   1      13.598 -17.162  -6.640  1.00  0.00     0.028 C 
BRANCH  25  26
ATOM     26 N15  MOL A   1      14.125 -15.787  -6.754  1.00  0.00    -0.287 NA
ATOM     27 C16  MOL A   1      14.522 -15.472  -8.137  1.00  0.00     0.064 C 
ATOM     28 C17  MOL A   1      15.988 -15.361  -7.769  1.00  0.00     0.272 C 
ATOM     29 F18  MOL A   1      16.497 -14.080  -7.893  1.00  0.00    -0.204 F 
ATOM     30 F19  MOL A   1      16.783 -16.339  -8.346  1.00  0.00    -0.204 F 
ATOM     31 C20  MOL A   1      15.542 -15.701  -6.360  1.00  0.00     0.064 C 
ENDBRANCH  25  26
ENDBRANCH  20  25
BRANCH  24  32
ATOM     32 O25  MOL A   1      10.596 -19.386  -9.911  1.00  0.00    -0.493 OA
ATOM     33 C26  MOL A   1       9.462 -20.246  -9.964  1.00  0.00     0.078 C 
ENDBRANCH  24  32
ENDBRANCH  18  19
ENDBRANCH  17  18
ENDBRANCH  15  17
ENDBRANCH   8  14
ENDBRANCH   1   8
TORSDOF 10
ENDMDL
MODEL 244
REMARK VINA RESULT:    -7.272      6.224     10.901
REMARK INTER + INTRA:         -12.571
REMARK INTER:                 -11.347
REMARK INTRA:                  -1.224
REMARK UNBOUND:                -1.048
REMARK  10 active torsions:
REMARK  status: ('A' for Active; 'I' for Inactive)
REMARK   1   A    between atoms:  C27_1   and   C6_8  
REMARK   2   A    between atoms:  C6_8    and   C5_9  
REMARK   3   A    between atoms:  C5_9    and   C3_12 
REMARK   4   A    between atoms:  C6_8    and   N7_14 
REMARK   5   A    between atoms:  C8_15   and  C10_17 
REMARK   6   A    between atoms: C10_17   and  O11_18 
REMARK   7   A    between atoms: O11_18   and  C12_19 
REMARK   8   A    between atoms: C13_20   and  C14_25 
REMARK   9   A    between atoms: C14_25   and  N15_26 
REMARK   10  A    between atoms: C24_24   and  O25_32 
ROOT
ATOM      1 C27  MOL A   1       8.432 -17.824  -9.313  1.00  0.00    -0.024 A 
ATOM      2 C28  MOL A   1       8.176 -17.352 -10.614  1.00  0.00    -0.057 A 
ATOM      3 C29  MOL A   1       7.039 -16.580 -10.875  1.00  0.00    -0.061 A 
ATOM      4 C30  MOL A   1       6.148 -16.273  -9.843  1.00  0.00    -0.048 A 
ATOM      5 C31  MOL A   1       6.393 -16.733  -8.544  1.00  0.00     0.018 A 
ATOM      6 Br32 MOL A   1       5.184 -16.294  -7.128  1.00  0.00    -0.051 Br
ATOM      7 C33  MOL A   1       7.526 -17.510  -8.281  1.00  0.00    -0.043 A 
ENDROOT
BRANCH   1   8
ATOM      8  C6  MOL A   1       9.625 -18.719  -9.054  1.00  0.00     0.063 C 
BRANCH   8   9
ATOM      9  C5  MOL A   1       9.218 -19.890  -8.142  1.00  0.00     0.051 C 
BRANCH   9  12
ATOM     10  C1  MOL A   1       6.748 -22.342  -9.891  1.00  0.00     0.006 C 
ATOM     11  N2  MOL A   1       7.286 -21.232  -9.117  1.00  0.00    -0.359 N 
ATOM     12  C3  MOL A   1       8.694 -21.051  -8.936  1.00  0.00     0.222 C 
ATOM     13  O4  MOL A   1       9.508 -21.867  -9.449  1.00  0.00    -0.275 OA
ENDBRANCH   9  12
ENDBRANCH   8   9
BRANCH   8  14
ATOM     14  N7  MOL A   1      10.716 -17.948  -8.449  1.00  0.00    -0.346 N 
ATOM     15  C8  MOL A   1      12.016 -17.862  -9.037  1.00  0.00     0.258 C 
ATOM     16  O9  MOL A   1      12.268 -18.469 -10.111  1.00  0.00    -0.271 OA
BRANCH  15  17
ATOM     17 C10  MOL A   1      13.089 -17.038  -8.390  1.00  0.00     0.167 C 
BRANCH  17  18
ATOM     18 O11  MOL A   1      13.561 -17.676  -7.205  1.00  0.00    -0.480 OA
BRANCH  18  19
ATOM     19 C12  MOL A   1      14.895 -18.066  -7.055  1.00  0.00     0.166 A 
ATOM     20 C13  MOL A   1      15.234 -19.393  -6.707  1.00  0.00     0.012 A 
ATOM     21 C21  MOL A   1      16.589 -19.761  -6.644  1.00  0.00    -0.054 A 
ATOM     22 C22  MOL A   1      17.590 -18.817  -6.875  1.00  0.00    -0.058 A 
ATOM     23 C23  MOL A   1      17.253 -17.496  -7.170  1.00  0.00    -0.016 A 
ATOM     24 C24  MOL A   1      15.903 -17.109  -7.258  1.00  0.00     0.161 A 
BRANCH  20  25
ATOM     25 C14  MOL A   1      14.177 -20.430  -6.397  1.00  0.00     0.028 C 
BRANCH  25  26
ATOM     26 N15  MOL A   1      13.769 -21.135  -7.630  1.00  0.00    -0.287 NA
ATOM     27 C16  MOL A   1      12.360 -21.557  -7.571  1.00  0.00     0.064 C 
ATOM     28 C17  MOL A   1      12.724 -23.028  -7.569  1.00  0.00     0.272 C 
ATOM     29 F18  MOL A   1      12.327 -23.702  -8.711  1.00  0.00    -0.204 F 
ATOM     30 F19  MOL A   1      12.399 -23.681  -6.391  1.00  0.00    -0.204 F 
ATOM     31 C20  MOL A   1      14.164 -22.554  -7.616  1.00  0.00     0.064 C 
ENDBRANCH  25  26
ENDBRANCH  20  25
BRANCH  24  32
ATOM     32 O25  MOL A   1      15.523 -15.791  -7.550  1.00  0.00    -0.493 OA
ATOM     33 C26  MOL A   1      16.433 -14.733  -7.829  1.00  0.00     0.078 C 
ENDBRANCH  24  32
ENDBRANCH  18  19
ENDBRANCH  17  18
ENDBRANCH  15  17
ENDBRANCH   8  14
ENDBRANCH   1   8
TORSDOF 10
ENDMDL
MODEL 245
REMARK VINA RESULT:    -7.271      3.868      8.371
REMARK INTER + INTRA:         -12.570
REMARK INTER:                 -12.002
REMARK INTRA:                  -0.567
REMARK UNBOUND:                -1.048
REMARK  10 active torsions:
REMARK  status: ('A' for Active; 'I' for Inactive)
REMARK   1   A    between atoms:  C27_1   and   C6_8  
REMARK   2   A    between atoms:  C6_8    and   C5_9  
REMARK   3   A    between atoms:  C5_9    and   C3_12 
REMARK   4   A    between atoms:  C6_8    and   N7_14 
REMARK   5   A    between atoms:  C8_15   and  C10_17 
REMARK   6   A    between atoms: C10_17   and  O11_18 
REMARK   7   A    between atoms: O11_18   and  C12_19 
REMARK   8   A    between atoms: C13_20   and  C14_25 
REMARK   9   A    between atoms: C14_25   and  N15_26 
REMARK   10  A    between atoms: C24_24   and  O25_32 
ROOT
ATOM      1 C27  MOL A   1       4.243 -14.822  -9.920  1.00  0.00    -0.024 A 
ATOM      2 C28  MOL A   1       3.000 -14.422 -10.443  1.00  0.00    -0.057 A 
ATOM      3 C29  MOL A   1       1.872 -14.359  -9.617  1.00  0.00    -0.061 A 
ATOM      4 C30  MOL A   1       1.974 -14.695  -8.264  1.00  0.00    -0.048 A 
ATOM      5 C31  MOL A   1       3.206 -15.091  -7.731  1.00  0.00     0.018 A 
ATOM      6 Br32 MOL A   1       3.349 -15.529  -5.874  1.00  0.00    -0.051 Br
ATOM      7 C33  MOL A   1       4.334 -15.160  -8.555  1.00  0.00    -0.043 A 
ENDROOT
BRANCH   1   8
ATOM      8  C6  MOL A   1       5.441 -14.957 -10.835  1.00  0.00     0.063 C 
BRANCH   8   9
ATOM      9  C5  MOL A   1       5.007 -14.780 -12.301  1.00  0.00     0.051 C 
BRANCH   9  12
ATOM     10  C1  MOL A   1       3.771 -11.447 -13.895  1.00  0.00     0.006 C 
ATOM     11  N2  MOL A   1       3.875 -12.849 -13.517  1.00  0.00    -0.359 N 
ATOM     12  C3  MOL A   1       4.934 -13.329 -12.682  1.00  0.00     0.222 C 
ATOM     13  O4  MOL A   1       5.814 -12.532 -12.257  1.00  0.00    -0.275 OA
ENDBRANCH   9  12
ENDBRANCH   8   9
BRANCH   8  14
ATOM     14  N7  MOL A   1       6.084 -16.261 -10.641  1.00  0.00    -0.346 N 
ATOM     15  C8  MOL A   1       7.266 -16.426  -9.855  1.00  0.00     0.258 C 
ATOM     16  O9  MOL A   1       7.806 -15.431  -9.303  1.00  0.00    -0.271 OA
BRANCH  15  17
ATOM     17 C10  MOL A   1       7.868 -17.787  -9.668  1.00  0.00     0.167 C 
BRANCH  17  18
ATOM     18 O11  MOL A   1       7.069 -18.779 -10.307  1.00  0.00    -0.480 OA
BRANCH  18  19
ATOM     19 C12  MOL A   1       7.364 -20.141 -10.216  1.00  0.00     0.166 A 
ATOM     20 C13  MOL A   1       6.428 -21.059  -9.686  1.00  0.00     0.012 A 
ATOM     21 C21  MOL A   1       6.736 -22.429  -9.686  1.00  0.00    -0.054 A 
ATOM     22 C22  MOL A   1       7.969 -22.878 -10.158  1.00  0.00    -0.058 A 
ATOM     23 C23  MOL A   1       8.912 -21.966 -10.634  1.00  0.00    -0.016 A 
ATOM     24 C24  MOL A   1       8.618 -20.590 -10.662  1.00  0.00     0.161 A 
BRANCH  20  25
ATOM     25 C14  MOL A   1       5.102 -20.604  -9.117  1.00  0.00     0.028 C 
BRANCH  25  26
ATOM     26 N15  MOL A   1       4.355 -21.755  -8.568  1.00  0.00    -0.287 NA
ATOM     27 C16  MOL A   1       2.975 -21.799  -9.080  1.00  0.00     0.064 C 
ATOM     28 C17  MOL A   1       2.380 -21.528  -7.713  1.00  0.00     0.272 C 
ATOM     29 F18  MOL A   1       1.661 -22.593  -7.199  1.00  0.00    -0.204 F 
ATOM     30 F19  MOL A   1       1.724 -20.312  -7.621  1.00  0.00    -0.204 F 
ATOM     31 C20  MOL A   1       3.815 -21.477  -7.226  1.00  0.00     0.064 C 
ENDBRANCH  25  26
ENDBRANCH  20  25
BRANCH  24  32
ATOM     32 O25  MOL A   1       9.538 -19.641 -11.131  1.00  0.00    -0.493 OA
ATOM     33 C26  MOL A   1      10.801 -19.377 -10.530  1.00  0.00     0.078 C 
ENDBRANCH  24  32
ENDBRANCH  18  19
ENDBRANCH  17  18
ENDBRANCH  15  17
ENDBRANCH   8  14
ENDBRANCH   1   8
TORSDOF 10
ENDMDL
MODEL 246
REMARK VINA RESULT:    -7.269      5.213      9.528
REMARK INTER + INTRA:         -12.567
REMARK INTER:                 -11.708
REMARK INTRA:                  -0.859
REMARK UNBOUND:                -1.048
REMARK  10 active torsions:
REMARK  status: ('A' for Active; 'I' for Inactive)
REMARK   1   A    between atoms:  C27_1   and   C6_8  
REMARK   2   A    between atoms:  C6_8    and   C5_9  
REMARK   3   A    between atoms:  C5_9    and   C3_12 
REMARK   4   A    between atoms:  C6_8    and   N7_14 
REMARK   5   A    between atoms:  C8_15   and  C10_17 
REMARK   6   A    between atoms: C10_17   and  O11_18 
REMARK   7   A    between atoms: O11_18   and  C12_19 
REMARK   8   A    between atoms: C13_20   and  C14_25 
REMARK   9   A    between atoms: C14_25   and  N15_26 
REMARK   10  A    between atoms: C24_24   and  O25_32 
ROOT
ATOM      1 C27  MOL A   1       6.212 -20.238  -8.904  1.00  0.00    -0.024 A 
ATOM      2 C28  MOL A   1       6.587 -21.023 -10.010  1.00  0.00    -0.057 A 
ATOM      3 C29  MOL A   1       5.687 -21.940 -10.564  1.00  0.00    -0.061 A 
ATOM      4 C30  MOL A   1       4.408 -22.084 -10.020  1.00  0.00    -0.048 A 
ATOM      5 C31  MOL A   1       4.022 -21.307  -8.922  1.00  0.00     0.018 A 
ATOM      6 Br32 MOL A   1       2.263 -21.488  -8.192  1.00  0.00    -0.051 Br
ATOM      7 C33  MOL A   1       4.920 -20.392  -8.363  1.00  0.00    -0.043 A 
ENDROOT
BRANCH   1   8
ATOM      8  C6  MOL A   1       7.215 -19.301  -8.267  1.00  0.00     0.063 C 
BRANCH   8   9
ATOM      9  C5  MOL A   1       6.720 -17.847  -8.373  1.00  0.00     0.051 C 
BRANCH   9  12
ATOM     10  C1  MOL A   1       7.019 -17.013 -12.166  1.00  0.00     0.006 C 
ATOM     11  N2  MOL A   1       6.613 -17.623 -10.908  1.00  0.00    -0.359 N 
ATOM     12  C3  MOL A   1       7.166 -17.206  -9.655  1.00  0.00     0.222 C 
ATOM     13  O4  MOL A   1       8.034 -16.291  -9.620  1.00  0.00    -0.275 OA
ENDBRANCH   9  12
ENDBRANCH   8   9
BRANCH   8  14
ATOM     14  N7  MOL A   1       8.527 -19.447  -8.907  1.00  0.00    -0.346 N 
ATOM     15  C8  MOL A   1       9.696 -19.839  -8.184  1.00  0.00     0.258 C 
ATOM     16  O9  MOL A   1       9.632 -20.065  -6.947  1.00  0.00    -0.271 OA
BRANCH  15  17
ATOM     17 C10  MOL A   1      11.007 -20.000  -8.893  1.00  0.00     0.167 C 
BRANCH  17  18
ATOM     18 O11  MOL A   1      12.085 -19.626  -8.039  1.00  0.00    -0.480 OA
BRANCH  18  19
ATOM     19 C12  MOL A   1      13.339 -20.238  -8.116  1.00  0.00     0.166 A 
ATOM     20 C13  MOL A   1      14.509 -19.480  -8.355  1.00  0.00     0.012 A 
ATOM     21 C21  MOL A   1      15.757 -20.125  -8.346  1.00  0.00    -0.054 A 
ATOM     22 C22  MOL A   1      15.839 -21.504  -8.152  1.00  0.00    -0.058 A 
ATOM     23 C23  MOL A   1      14.680 -22.257  -7.967  1.00  0.00    -0.016 A 
ATOM     24 C24  MOL A   1      13.420 -21.630  -7.952  1.00  0.00     0.161 A 
BRANCH  20  25
ATOM     25 C14  MOL A   1      14.454 -17.992  -8.622  1.00  0.00     0.028 C 
BRANCH  25  26
ATOM     26 N15  MOL A   1      14.444 -17.240  -7.350  1.00  0.00    -0.287 NA
ATOM     27 C16  MOL A   1      13.356 -16.249  -7.315  1.00  0.00     0.064 C 
ATOM     28 C17  MOL A   1      14.321 -15.081  -7.304  1.00  0.00     0.272 C 
ATOM     29 F18  MOL A   1      14.304 -14.357  -6.124  1.00  0.00    -0.204 F 
ATOM     30 F19  MOL A   1      14.260 -14.296  -8.444  1.00  0.00    -0.204 F 
ATOM     31 C20  MOL A   1      15.413 -16.131  -7.354  1.00  0.00     0.064 C 
ENDBRANCH  25  26
ENDBRANCH  20  25
BRANCH  24  32
ATOM     32 O25  MOL A   1      12.231 -22.351  -7.771  1.00  0.00    -0.493 OA
ATOM     33 C26  MOL A   1      12.092 -23.748  -8.004  1.00  0.00     0.078 C 
ENDBRANCH  24  32
ENDBRANCH  18  19
ENDBRANCH  17  18
ENDBRANCH  15  17
ENDBRANCH   8  14
ENDBRANCH   1   8
TORSDOF 10
ENDMDL
MODEL 247
REMARK VINA RESULT:    -7.265      2.914      5.170
REMARK INTER + INTRA:         -12.561
REMARK INTER:                 -13.012
REMARK INTRA:                   0.451
REMARK UNBOUND:                -1.048
REMARK  10 active torsions:
REMARK  status: ('A' for Active; 'I' for Inactive)
REMARK   1   A    between atoms:  C27_1   and   C6_8  
REMARK   2   A    between atoms:  C6_8    and   C5_9  
REMARK   3   A    between atoms:  C5_9    and   C3_12 
REMARK   4   A    between atoms:  C6_8    and   N7_14 
REMARK   5   A    between atoms:  C8_15   and  C10_17 
REMARK   6   A    between atoms: C10_17   and  O11_18 
REMARK   7   A    between atoms: O11_18   and  C12_19 
REMARK   8   A    between atoms: C13_20   and  C14_25 
REMARK   9   A    between atoms: C14_25   and  N15_26 
REMARK   10  A    between atoms: C24_24   and  O25_32 
ROOT
ATOM      1 C27  MOL A   1       4.430 -21.622  -8.840  1.00  0.00    -0.024 A 
ATOM      2 C28  MOL A   1       4.187 -21.756  -7.461  1.00  0.00    -0.057 A 
ATOM      3 C29  MOL A   1       2.941 -22.198  -7.002  1.00  0.00    -0.061 A 
ATOM      4 C30  MOL A   1       1.928 -22.508  -7.912  1.00  0.00    -0.048 A 
ATOM      5 C31  MOL A   1       2.158 -22.382  -9.287  1.00  0.00     0.018 A 
ATOM      6 Br32 MOL A   1       0.777 -22.828 -10.534  1.00  0.00    -0.051 Br
ATOM      7 C33  MOL A   1       3.400 -21.936  -9.750  1.00  0.00    -0.043 A 
ENDROOT
BRANCH   1   8
ATOM      8  C6  MOL A   1       5.755 -21.075  -9.325  1.00  0.00     0.063 C 
BRANCH   8   9
ATOM      9  C5  MOL A   1       6.913 -21.750  -8.569  1.00  0.00     0.051 C 
BRANCH   9  12
ATOM     10  C1  MOL A   1       9.304 -22.318 -11.591  1.00  0.00     0.006 C 
ATOM     11  N2  MOL A   1       8.362 -21.709 -10.663  1.00  0.00    -0.359 N 
ATOM     12  C3  MOL A   1       7.877 -22.410  -9.513  1.00  0.00     0.222 C 
ATOM     13  O4  MOL A   1       8.259 -23.589  -9.283  1.00  0.00    -0.275 OA
ENDBRANCH   9  12
ENDBRANCH   8   9
BRANCH   8  14
ATOM     14  N7  MOL A   1       5.800 -19.620  -9.146  1.00  0.00    -0.346 N 
ATOM     15  C8  MOL A   1       6.776 -18.976  -8.324  1.00  0.00     0.258 C 
ATOM     16  O9  MOL A   1       7.637 -19.658  -7.707  1.00  0.00    -0.271 OA
BRANCH  15  17
ATOM     17 C10  MOL A   1       6.793 -17.482  -8.196  1.00  0.00     0.167 C 
BRANCH  17  18
ATOM     18 O11  MOL A   1       7.723 -16.914  -9.115  1.00  0.00    -0.480 OA
BRANCH  18  19
ATOM     19 C12  MOL A   1       7.628 -17.126 -10.493  1.00  0.00     0.166 A 
ATOM     20 C13  MOL A   1       6.652 -16.460 -11.269  1.00  0.00     0.012 A 
ATOM     21 C21  MOL A   1       6.643 -16.642 -12.662  1.00  0.00    -0.054 A 
ATOM     22 C22  MOL A   1       7.554 -17.507 -13.269  1.00  0.00    -0.058 A 
ATOM     23 C23  MOL A   1       8.484 -18.202 -12.495  1.00  0.00    -0.016 A 
ATOM     24 C24  MOL A   1       8.525 -18.020 -11.100  1.00  0.00     0.161 A 
BRANCH  20  25
ATOM     25 C14  MOL A   1       5.615 -15.556 -10.641  1.00  0.00     0.028 C 
BRANCH  25  26
ATOM     26 N15  MOL A   1       5.229 -14.483 -11.579  1.00  0.00    -0.287 NA
ATOM     27 C16  MOL A   1       4.266 -13.550 -10.969  1.00  0.00     0.064 C 
ATOM     28 C17  MOL A   1       3.158 -13.956 -11.921  1.00  0.00     0.272 C 
ATOM     29 F18  MOL A   1       2.776 -12.950 -12.790  1.00  0.00    -0.204 F 
ATOM     30 F19  MOL A   1       2.097 -14.596 -11.301  1.00  0.00    -0.204 F 
ATOM     31 C20  MOL A   1       4.175 -14.913 -12.513  1.00  0.00     0.064 C 
ENDBRANCH  25  26
ENDBRANCH  20  25
BRANCH  24  32
ATOM     32 O25  MOL A   1       9.443 -18.700 -10.287  1.00  0.00    -0.493 OA
ATOM     33 C26  MOL A   1      10.856 -18.540 -10.359  1.00  0.00     0.078 C 
ENDBRANCH  24  32
ENDBRANCH  18  19
ENDBRANCH  17  18
ENDBRANCH  15  17
ENDBRANCH   8  14
ENDBRANCH   1   8
TORSDOF 10
ENDMDL
MODEL 248
REMARK VINA RESULT:    -7.261      7.889     12.632
REMARK INTER + INTRA:         -12.555
REMARK INTER:                 -11.133
REMARK INTRA:                  -1.421
REMARK UNBOUND:                -1.048
REMARK  10 active torsions:
REMARK  status: ('A' for Active; 'I' for Inactive)
REMARK   1   A    between atoms:  C27_1   and   C6_8  
REMARK   2   A    between atoms:  C6_8    and   C5_9  
REMARK   3   A    between atoms:  C5_9    and   C3_12 
REMARK   4   A    between atoms:  C6_8    and   N7_14 
REMARK   5   A    between atoms:  C8_15   and  C10_17 
REMARK   6   A    between atoms: C10_17   and  O11_18 
REMARK   7   A    between atoms: O11_18   and  C12_19 
REMARK   8   A    between atoms: C13_20   and  C14_25 
REMARK   9   A    between atoms: C14_25   and  N15_26 
REMARK   10  A    between atoms: C24_24   and  O25_32 
ROOT
ATOM      1 C27  MOL A   1      10.336 -18.473  -8.839  1.00  0.00    -0.024 A 
ATOM      2 C28  MOL A   1      10.016 -17.411  -7.974  1.00  0.00    -0.057 A 
ATOM      3 C29  MOL A   1       8.954 -16.550  -8.273  1.00  0.00    -0.061 A 
ATOM      4 C30  MOL A   1       8.204 -16.740  -9.437  1.00  0.00    -0.048 A 
ATOM      5 C31  MOL A   1       8.511 -17.794 -10.304  1.00  0.00     0.018 A 
ATOM      6 Br32 MOL A   1       7.469 -18.066 -11.886  1.00  0.00    -0.051 Br
ATOM      7 C33  MOL A   1       9.574 -18.654 -10.011  1.00  0.00    -0.043 A 
ENDROOT
BRANCH   1   8
ATOM      8  C6  MOL A   1      11.531 -19.355  -8.546  1.00  0.00     0.063 C 
BRANCH   8   9
ATOM      9  C5  MOL A   1      11.122 -20.498  -7.598  1.00  0.00     0.051 C 
BRANCH   9  12
ATOM     10  C1  MOL A   1      14.338 -22.684  -7.371  1.00  0.00     0.006 C 
ATOM     11  N2  MOL A   1      13.162 -21.996  -7.883  1.00  0.00    -0.359 N 
ATOM     12  C3  MOL A   1      12.323 -21.203  -7.037  1.00  0.00     0.222 C 
ATOM     13  O4  MOL A   1      12.590 -21.089  -5.809  1.00  0.00    -0.275 OA
ENDBRANCH   9  12
ENDBRANCH   8   9
BRANCH   8  14
ATOM     14  N7  MOL A   1      12.617 -18.562  -7.960  1.00  0.00    -0.346 N 
ATOM     15  C8  MOL A   1      13.876 -18.383  -8.611  1.00  0.00     0.258 C 
ATOM     16  O9  MOL A   1      14.096 -18.923  -9.727  1.00  0.00    -0.271 OA
BRANCH  15  17
ATOM     17 C10  MOL A   1      14.943 -17.540  -7.979  1.00  0.00     0.167 C 
BRANCH  17  18
ATOM     18 O11  MOL A   1      15.329 -18.084  -6.720  1.00  0.00    -0.480 OA
BRANCH  18  19
ATOM     19 C12  MOL A   1      16.398 -17.566  -5.984  1.00  0.00     0.166 A 
ATOM     20 C13  MOL A   1      17.730 -17.956  -6.255  1.00  0.00     0.012 A 
ATOM     21 C21  MOL A   1      18.780 -17.351  -5.545  1.00  0.00    -0.054 A 
ATOM     22 C22  MOL A   1      18.511 -16.411  -4.550  1.00  0.00    -0.058 A 
ATOM     23 C23  MOL A   1      17.194 -16.064  -4.249  1.00  0.00    -0.016 A 
ATOM     24 C24  MOL A   1      16.127 -16.643  -4.961  1.00  0.00     0.161 A 
BRANCH  20  25
ATOM     25 C14  MOL A   1      18.056 -19.011  -7.290  1.00  0.00     0.028 C 
BRANCH  25  26
ATOM     26 N15  MOL A   1      18.888 -20.077  -6.695  1.00  0.00    -0.287 NA
ATOM     27 C16  MOL A   1      20.127 -20.289  -7.463  1.00  0.00     0.064 C 
ATOM     28 C17  MOL A   1      19.710 -21.682  -7.891  1.00  0.00     0.272 C 
ATOM     29 F18  MOL A   1      20.497 -22.686  -7.355  1.00  0.00    -0.204 F 
ATOM     30 F19  MOL A   1      19.493 -21.805  -9.254  1.00  0.00    -0.204 F 
ATOM     31 C20  MOL A   1      18.442 -21.421  -7.101  1.00  0.00     0.064 C 
ENDBRANCH  25  26
ENDBRANCH  20  25
BRANCH  24  32
ATOM     32 O25  MOL A   1      14.789 -16.322  -4.689  1.00  0.00    -0.493 OA
ATOM     33 C26  MOL A   1      14.103 -15.198  -5.231  1.00  0.00     0.078 C 
ENDBRANCH  24  32
ENDBRANCH  18  19
ENDBRANCH  17  18
ENDBRANCH  15  17
ENDBRANCH   8  14
ENDBRANCH   1   8
TORSDOF 10
ENDMDL
MODEL 249
REMARK VINA RESULT:    -7.257      8.420     12.481
REMARK INTER + INTRA:         -12.547
REMARK INTER:                 -10.710
REMARK INTRA:                  -1.837
REMARK UNBOUND:                -1.048
REMARK  10 active torsions:
REMARK  status: ('A' for Active; 'I' for Inactive)
REMARK   1   A    between atoms:  C27_1   and   C6_8  
REMARK   2   A    between atoms:  C6_8    and   C5_9  
REMARK   3   A    between atoms:  C5_9    and   C3_12 
REMARK   4   A    between atoms:  C6_8    and   N7_14 
REMARK   5   A    between atoms:  C8_15   and  C10_17 
REMARK   6   A    between atoms: C10_17   and  O11_18 
REMARK   7   A    between atoms: O11_18   and  C12_19 
REMARK   8   A    between atoms: C13_20   and  C14_25 
REMARK   9   A    between atoms: C14_25   and  N15_26 
REMARK   10  A    between atoms: C24_24   and  O25_32 
ROOT
ATOM      1 C27  MOL A   1      15.410 -17.690  -2.553  1.00  0.00    -0.024 A 
ATOM      2 C28  MOL A   1      15.702 -19.019  -2.911  1.00  0.00    -0.057 A 
ATOM      3 C29  MOL A   1      15.441 -20.065  -2.019  1.00  0.00    -0.061 A 
ATOM      4 C30  MOL A   1      14.888 -19.796  -0.764  1.00  0.00    -0.048 A 
ATOM      5 C31  MOL A   1      14.590 -18.479  -0.397  1.00  0.00     0.018 A 
ATOM      6 Br32 MOL A   1      13.813 -18.114   1.313  1.00  0.00    -0.051 Br
ATOM      7 C33  MOL A   1      14.854 -17.430  -1.283  1.00  0.00    -0.043 A 
ENDROOT
BRANCH   1   8
ATOM      8  C6  MOL A   1      15.762 -16.558  -3.494  1.00  0.00     0.063 C 
BRANCH   8   9
ATOM      9  C5  MOL A   1      16.243 -15.336  -2.691  1.00  0.00     0.051 C 
BRANCH   9  12
ATOM     10  C1  MOL A   1      19.823 -15.172  -4.218  1.00  0.00     0.006 C 
ATOM     11  N2  MOL A   1      18.387 -15.357  -4.066  1.00  0.00    -0.359 N 
ATOM     12  C3  MOL A   1      17.727 -15.147  -2.813  1.00  0.00     0.222 C 
ATOM     13  O4  MOL A   1      18.392 -14.797  -1.799  1.00  0.00    -0.275 OA
ENDBRANCH   9  12
ENDBRANCH   8   9
BRANCH   8  14
ATOM     14  N7  MOL A   1      14.604 -16.208  -4.323  1.00  0.00    -0.346 N 
ATOM     15  C8  MOL A   1      14.728 -15.822  -5.693  1.00  0.00     0.258 C 
ATOM     16  O9  MOL A   1      15.863 -15.760  -6.236  1.00  0.00    -0.271 OA
BRANCH  15  17
ATOM     17 C10  MOL A   1      13.508 -15.499  -6.504  1.00  0.00     0.167 C 
BRANCH  17  18
ATOM     18 O11  MOL A   1      13.503 -16.247  -7.717  1.00  0.00    -0.480 OA
BRANCH  18  19
ATOM     19 C12  MOL A   1      13.078 -17.578  -7.766  1.00  0.00     0.166 A 
ATOM     20 C13  MOL A   1      13.986 -18.626  -8.042  1.00  0.00     0.012 A 
ATOM     21 C21  MOL A   1      13.531 -19.954  -8.003  1.00  0.00    -0.054 A 
ATOM     22 C22  MOL A   1      12.190 -20.237  -7.743  1.00  0.00    -0.058 A 
ATOM     23 C23  MOL A   1      11.286 -19.198  -7.520  1.00  0.00    -0.016 A 
ATOM     24 C24  MOL A   1      11.722 -17.860  -7.534  1.00  0.00     0.161 A 
BRANCH  20  25
ATOM     25 C14  MOL A   1      15.435 -18.356  -8.381  1.00  0.00     0.028 C 
BRANCH  25  26
ATOM     26 N15  MOL A   1      16.303 -19.406  -7.811  1.00  0.00    -0.287 NA
ATOM     27 C16  MOL A   1      16.597 -19.154  -6.390  1.00  0.00     0.064 C 
ATOM     28 C17  MOL A   1      18.071 -18.924  -6.660  1.00  0.00     0.272 C 
ATOM     29 F18  MOL A   1      18.893 -19.893  -6.111  1.00  0.00    -0.204 F 
ATOM     30 F19  MOL A   1      18.488 -17.627  -6.411  1.00  0.00    -0.204 F 
ATOM     31 C20  MOL A   1      17.726 -19.178  -8.115  1.00  0.00     0.064 C 
ENDBRANCH  25  26
ENDBRANCH  20  25
BRANCH  24  32
ATOM     32 O25  MOL A   1      10.845 -16.788  -7.316  1.00  0.00    -0.493 OA
ATOM     33 C26  MOL A   1       9.571 -16.649  -7.938  1.00  0.00     0.078 C 
ENDBRANCH  24  32
ENDBRANCH  18  19
ENDBRANCH  17  18
ENDBRANCH  15  17
ENDBRANCH   8  14
ENDBRANCH   1   8
TORSDOF 10
ENDMDL
MODEL 250
REMARK VINA RESULT:    -7.254      6.529     10.538
REMARK INTER + INTRA:         -12.544
REMARK INTER:                 -11.193
REMARK INTRA:                  -1.351
REMARK UNBOUND:                -1.048
REMARK  10 active torsions:
REMARK  status: ('A' for Active; 'I' for Inactive)
REMARK   1   A    between atoms:  C27_1   and   C6_8  
REMARK   2   A    between atoms:  C6_8    and   C5_9  
REMARK   3   A    between atoms:  C5_9    and   C3_12 
REMARK   4   A    between atoms:  C6_8    and   N7_14 
REMARK   5   A    between atoms:  C8_15   and  C10_17 
REMARK   6   A    between atoms: C10_17   and  O11_18 
REMARK   7   A    between atoms: O11_18   and  C12_19 
REMARK   8   A    between atoms: C13_20   and  C14_25 
REMARK   9   A    between atoms: C14_25   and  N15_26 
REMARK   10  A    between atoms: C24_24   and  O25_32 
ROOT
ATOM      1 C27  MOL A   1       6.406 -19.647  -8.488  1.00  0.00    -0.024 A 
ATOM      2 C28  MOL A   1       5.356 -20.531  -8.179  1.00  0.00    -0.057 A 
ATOM      3 C29  MOL A   1       4.206 -20.065  -7.534  1.00  0.00    -0.061 A 
ATOM      4 C30  MOL A   1       4.092 -18.715  -7.191  1.00  0.00    -0.048 A 
ATOM      5 C31  MOL A   1       5.128 -17.824  -7.496  1.00  0.00     0.018 A 
ATOM      6 Br32 MOL A   1       4.962 -15.972  -7.046  1.00  0.00    -0.051 Br
ATOM      7 C33  MOL A   1       6.282 -18.288  -8.136  1.00  0.00    -0.043 A 
ENDROOT
BRANCH   1   8
ATOM      8  C6  MOL A   1       7.677 -20.173  -9.121  1.00  0.00     0.063 C 
BRANCH   8   9
ATOM      9  C5  MOL A   1       7.516 -21.664  -9.466  1.00  0.00     0.051 C 
BRANCH   9  12
ATOM     10  C1  MOL A   1      10.421 -24.093 -10.380  1.00  0.00     0.006 C 
ATOM     11  N2  MOL A   1       9.228 -23.526  -9.768  1.00  0.00    -0.359 N 
ATOM     12  C3  MOL A   1       8.756 -22.217 -10.107  1.00  0.00     0.222 C 
ATOM     13  O4  MOL A   1       9.379 -21.520 -10.954  1.00  0.00    -0.275 OA
ENDBRANCH   9  12
ENDBRANCH   8   9
BRANCH   8  14
ATOM     14  N7  MOL A   1       8.815 -19.971  -8.218  1.00  0.00    -0.346 N 
ATOM     15  C8  MOL A   1       9.762 -18.916  -8.398  1.00  0.00     0.258 C 
ATOM     16  O9  MOL A   1       9.648 -18.118  -9.366  1.00  0.00    -0.271 OA
BRANCH  15  17
ATOM     17 C10  MOL A   1      10.893 -18.739  -7.429  1.00  0.00     0.167 C 
BRANCH  17  18
ATOM     18 O11  MOL A   1      12.091 -18.394  -8.120  1.00  0.00    -0.480 OA
BRANCH  18  19
ATOM     19 C12  MOL A   1      13.337 -18.388  -7.485  1.00  0.00     0.166 A 
ATOM     20 C13  MOL A   1      14.109 -19.568  -7.380  1.00  0.00     0.012 A 
ATOM     21 C21  MOL A   1      15.389 -19.499  -6.805  1.00  0.00    -0.054 A 
ATOM     22 C22  MOL A   1      15.875 -18.293  -6.300  1.00  0.00    -0.058 A 
ATOM     23 C23  MOL A   1      15.091 -17.141  -6.360  1.00  0.00    -0.016 A 
ATOM     24 C24  MOL A   1      13.814 -17.181  -6.950  1.00  0.00     0.161 A 
BRANCH  20  25
ATOM     25 C14  MOL A   1      13.594 -20.904  -7.867  1.00  0.00     0.028 C 
BRANCH  25  26
ATOM     26 N15  MOL A   1      14.099 -21.996  -7.010  1.00  0.00    -0.287 NA
ATOM     27 C16  MOL A   1      14.074 -23.290  -7.711  1.00  0.00     0.064 C 
ATOM     28 C17  MOL A   1      13.021 -23.857  -6.781  1.00  0.00     0.272 C 
ATOM     29 F18  MOL A   1      13.479 -24.895  -5.988  1.00  0.00    -0.204 F 
ATOM     30 F19  MOL A   1      11.810 -24.118  -7.402  1.00  0.00    -0.204 F 
ATOM     31 C20  MOL A   1      13.065 -22.506  -6.094  1.00  0.00     0.064 C 
ENDBRANCH  25  26
ENDBRANCH  20  25
BRANCH  24  32
ATOM     32 O25  MOL A   1      12.994 -16.046  -7.029  1.00  0.00    -0.493 OA
ATOM     33 C26  MOL A   1      12.711 -15.178  -5.936  1.00  0.00     0.078 C 
ENDBRANCH  24  32
ENDBRANCH  18  19
ENDBRANCH  17  18
ENDBRANCH  15  17
ENDBRANCH   8  14
ENDBRANCH   1   8
TORSDOF 10
ENDMDL
MODEL 251
REMARK VINA RESULT:    -7.251      6.902     10.356
REMARK INTER + INTRA:         -12.539
REMARK INTER:                 -10.632
REMARK INTRA:                  -1.907
REMARK UNBOUND:                -1.048
REMARK  10 active torsions:
REMARK  status: ('A' for Active; 'I' for Inactive)
REMARK   1   A    between atoms:  C27_1   and   C6_8  
REMARK   2   A    between atoms:  C6_8    and   C5_9  
REMARK   3   A    between atoms:  C5_9    and   C3_12 
REMARK   4   A    between atoms:  C6_8    and   N7_14 
REMARK   5   A    between atoms:  C8_15   and  C10_17 
REMARK   6   A    between atoms: C10_17   and  O11_18 
REMARK   7   A    between atoms: O11_18   and  C12_19 
REMARK   8   A    between atoms: C13_20   and  C14_25 
REMARK   9   A    between atoms: C14_25   and  N15_26 
REMARK   10  A    between atoms: C24_24   and  O25_32 
ROOT
ATOM      1 C27  MOL A   1      16.532 -17.807  -7.838  1.00  0.00    -0.024 A 
ATOM      2 C28  MOL A   1      16.169 -16.714  -8.645  1.00  0.00    -0.057 A 
ATOM      3 C29  MOL A   1      16.500 -15.410  -8.261  1.00  0.00    -0.061 A 
ATOM      4 C30  MOL A   1      17.193 -15.185  -7.069  1.00  0.00    -0.048 A 
ATOM      5 C31  MOL A   1      17.563 -16.263  -6.258  1.00  0.00     0.018 A 
ATOM      6 Br32 MOL A   1      18.531 -15.956  -4.637  1.00  0.00    -0.051 Br
ATOM      7 C33  MOL A   1      17.230 -17.568  -6.636  1.00  0.00    -0.043 A 
ENDROOT
BRANCH   1   8
ATOM      8  C6  MOL A   1      16.108 -19.207  -8.224  1.00  0.00     0.063 C 
BRANCH   8   9
ATOM      9  C5  MOL A   1      16.961 -19.711  -9.402  1.00  0.00     0.051 C 
BRANCH   9  12
ATOM     10  C1  MOL A   1      19.230 -22.214  -7.462  1.00  0.00     0.006 C 
ATOM     11  N2  MOL A   1      18.497 -21.015  -7.843  1.00  0.00    -0.359 N 
ATOM     12  C3  MOL A   1      17.715 -20.959  -9.041  1.00  0.00     0.222 C 
ATOM     13  O4  MOL A   1      17.652 -21.962  -9.803  1.00  0.00    -0.275 OA
ENDBRANCH   9  12
ENDBRANCH   8   9
BRANCH   8  14
ATOM     14  N7  MOL A   1      14.683 -19.229  -8.573  1.00  0.00    -0.346 N 
ATOM     15  C8  MOL A   1      13.749 -20.106  -7.939  1.00  0.00     0.258 C 
ATOM     16  O9  MOL A   1      14.136 -20.910  -7.050  1.00  0.00    -0.271 OA
BRANCH  15  17
ATOM     17 C10  MOL A   1      12.298 -20.068  -8.316  1.00  0.00     0.167 C 
BRANCH  17  18
ATOM     18 O11  MOL A   1      12.014 -18.906  -9.090  1.00  0.00    -0.480 OA
BRANCH  18  19
ATOM     19 C12  MOL A   1      10.879 -18.122  -8.861  1.00  0.00     0.166 A 
ATOM     20 C13  MOL A   1      10.863 -17.136  -7.849  1.00  0.00     0.012 A 
ATOM     21 C21  MOL A   1       9.730 -16.318  -7.707  1.00  0.00    -0.054 A 
ATOM     22 C22  MOL A   1       8.613 -16.507  -8.521  1.00  0.00    -0.058 A 
ATOM     23 C23  MOL A   1       8.612 -17.515  -9.486  1.00  0.00    -0.016 A 
ATOM     24 C24  MOL A   1       9.743 -18.333  -9.660  1.00  0.00     0.161 A 
BRANCH  20  25
ATOM     25 C14  MOL A   1      12.034 -16.937  -6.912  1.00  0.00     0.028 C 
BRANCH  25  26
ATOM     26 N15  MOL A   1      12.117 -15.526  -6.483  1.00  0.00    -0.287 NA
ATOM     27 C16  MOL A   1      13.453 -14.960  -6.735  1.00  0.00     0.064 C 
ATOM     28 C17  MOL A   1      13.746 -14.801  -5.256  1.00  0.00     0.272 C 
ATOM     29 F18  MOL A   1      13.846 -13.483  -4.848  1.00  0.00    -0.204 F 
ATOM     30 F19  MOL A   1      14.775 -15.609  -4.802  1.00  0.00    -0.204 F 
ATOM     31 C20  MOL A   1      12.370 -15.399  -5.037  1.00  0.00     0.064 C 
ENDBRANCH  25  26
ENDBRANCH  20  25
BRANCH  24  32
ATOM     32 O25  MOL A   1       9.782 -19.357 -10.618  1.00  0.00    -0.493 OA
ATOM     33 C26  MOL A   1       9.071 -20.586 -10.512  1.00  0.00     0.078 C 
ENDBRANCH  24  32
ENDBRANCH  18  19
ENDBRANCH  17  18
ENDBRANCH  15  17
ENDBRANCH   8  14
ENDBRANCH   1   8
TORSDOF 10
ENDMDL
MODEL 252
REMARK VINA RESULT:    -7.251      7.019     11.856
REMARK INTER + INTRA:         -12.538
REMARK INTER:                 -11.195
REMARK INTRA:                  -1.343
REMARK UNBOUND:                -1.048
REMARK  10 active torsions:
REMARK  status: ('A' for Active; 'I' for Inactive)
REMARK   1   A    between atoms:  C27_1   and   C6_8  
REMARK   2   A    between atoms:  C6_8    and   C5_9  
REMARK   3   A    between atoms:  C5_9    and   C3_12 
REMARK   4   A    between atoms:  C6_8    and   N7_14 
REMARK   5   A    between atoms:  C8_15   and  C10_17 
REMARK   6   A    between atoms: C10_17   and  O11_18 
REMARK   7   A    between atoms: O11_18   and  C12_19 
REMARK   8   A    between atoms: C13_20   and  C14_25 
REMARK   9   A    between atoms: C14_25   and  N15_26 
REMARK   10  A    between atoms: C24_24   and  O25_32 
ROOT
ATOM      1 C27  MOL A   1       9.444 -18.070  -9.190  1.00  0.00    -0.024 A 
ATOM      2 C28  MOL A   1       8.912 -17.174  -8.245  1.00  0.00    -0.057 A 
ATOM      3 C29  MOL A   1       7.838 -16.344  -8.583  1.00  0.00    -0.061 A 
ATOM      4 C30  MOL A   1       7.286 -16.399  -9.866  1.00  0.00    -0.048 A 
ATOM      5 C31  MOL A   1       7.803 -17.288 -10.814  1.00  0.00     0.018 A 
ATOM      6 Br32 MOL A   1       7.032 -17.378 -12.563  1.00  0.00    -0.051 Br
ATOM      7 C33  MOL A   1       8.880 -18.116 -10.482  1.00  0.00    -0.043 A 
ENDROOT
BRANCH   1   8
ATOM      8  C6  MOL A   1      10.651 -18.913  -8.840  1.00  0.00     0.063 C 
BRANCH   8   9
ATOM      9  C5  MOL A   1      10.215 -20.152  -8.037  1.00  0.00     0.051 C 
BRANCH   9  12
ATOM     10  C1  MOL A   1       9.511 -22.865 -10.742  1.00  0.00     0.006 C 
ATOM     11  N2  MOL A   1       9.417 -21.663  -9.926  1.00  0.00    -0.359 N 
ATOM     12  C3  MOL A   1      10.331 -21.406  -8.854  1.00  0.00     0.222 C 
ATOM     13  O4  MOL A   1      11.246 -22.234  -8.590  1.00  0.00    -0.275 OA
ENDBRANCH   9  12
ENDBRANCH   8   9
BRANCH   8  14
ATOM     14  N7  MOL A   1      11.621 -18.119  -8.077  1.00  0.00    -0.346 N 
ATOM     15  C8  MOL A   1      13.033 -18.275  -8.231  1.00  0.00     0.258 C 
ATOM     16  O9  MOL A   1      13.494 -19.127  -9.037  1.00  0.00    -0.271 OA
BRANCH  15  17
ATOM     17 C10  MOL A   1      13.980 -17.419  -7.445  1.00  0.00     0.167 C 
BRANCH  17  18
ATOM     18 O11  MOL A   1      15.305 -17.541  -7.957  1.00  0.00    -0.480 OA
BRANCH  18  19
ATOM     19 C12  MOL A   1      16.420 -17.623  -7.118  1.00  0.00     0.166 A 
ATOM     20 C13  MOL A   1      17.094 -18.849  -6.915  1.00  0.00     0.012 A 
ATOM     21 C21  MOL A   1      18.257 -18.869  -6.127  1.00  0.00    -0.054 A 
ATOM     22 C22  MOL A   1      18.715 -17.704  -5.511  1.00  0.00    -0.058 A 
ATOM     23 C23  MOL A   1      18.020 -16.506  -5.672  1.00  0.00    -0.016 A 
ATOM     24 C24  MOL A   1      16.864 -16.457  -6.473  1.00  0.00     0.161 A 
BRANCH  20  25
ATOM     25 C14  MOL A   1      16.597 -20.142  -7.523  1.00  0.00     0.028 C 
BRANCH  25  26
ATOM     26 N15  MOL A   1      16.150 -21.070  -6.464  1.00  0.00    -0.287 NA
ATOM     27 C16  MOL A   1      16.313 -22.476  -6.873  1.00  0.00     0.064 C 
ATOM     28 C17  MOL A   1      14.817 -22.722  -6.886  1.00  0.00     0.272 C 
ATOM     29 F18  MOL A   1      14.392 -23.608  -5.911  1.00  0.00    -0.204 F 
ATOM     30 F19  MOL A   1      14.307 -22.987  -8.146  1.00  0.00    -0.204 F 
ATOM     31 C20  MOL A   1      14.690 -21.267  -6.478  1.00  0.00     0.064 C 
ENDBRANCH  25  26
ENDBRANCH  20  25
BRANCH  24  32
ATOM     32 O25  MOL A   1      16.136 -15.273  -6.660  1.00  0.00    -0.493 OA
ATOM     33 C26  MOL A   1      16.163 -14.488  -7.848  1.00  0.00     0.078 C 
ENDBRANCH  24  32
ENDBRANCH  18  19
ENDBRANCH  17  18
ENDBRANCH  15  17
ENDBRANCH   8  14
ENDBRANCH   1   8
TORSDOF 10
ENDMDL
MODEL 253
REMARK VINA RESULT:    -7.251      5.806      8.774
REMARK INTER + INTRA:         -12.537
REMARK INTER:                 -10.980
REMARK INTRA:                  -1.558
REMARK UNBOUND:                -1.048
REMARK  10 active torsions:
REMARK  status: ('A' for Active; 'I' for Inactive)
REMARK   1   A    between atoms:  C27_1   and   C6_8  
REMARK   2   A    between atoms:  C6_8    and   C5_9  
REMARK   3   A    between atoms:  C5_9    and   C3_12 
REMARK   4   A    between atoms:  C6_8    and   N7_14 
REMARK   5   A    between atoms:  C8_15   and  C10_17 
REMARK   6   A    between atoms: C10_17   and  O11_18 
REMARK   7   A    between atoms: O11_18   and  C12_19 
REMARK   8   A    between atoms: C13_20   and  C14_25 
REMARK   9   A    between atoms: C14_25   and  N15_26 
REMARK   10  A    between atoms: C24_24   and  O25_32 
ROOT
ATOM      1 C27  MOL A   1      15.424 -20.155  -8.035  1.00  0.00    -0.024 A 
ATOM      2 C28  MOL A   1      15.131 -21.386  -8.650  1.00  0.00    -0.057 A 
ATOM      3 C29  MOL A   1      16.158 -22.282  -8.965  1.00  0.00    -0.061 A 
ATOM      4 C30  MOL A   1      17.485 -21.959  -8.670  1.00  0.00    -0.048 A 
ATOM      5 C31  MOL A   1      17.790 -20.740  -8.055  1.00  0.00     0.018 A 
ATOM      6 Br32 MOL A   1      19.605 -20.308  -7.632  1.00  0.00    -0.051 Br
ATOM      7 C33  MOL A   1      16.767 -19.839  -7.744  1.00  0.00    -0.043 A 
ENDROOT
BRANCH   1   8
ATOM      8  C6  MOL A   1      14.316 -19.161  -7.764  1.00  0.00     0.063 C 
BRANCH   8   9
ATOM      9  C5  MOL A   1      14.538 -18.482  -6.401  1.00  0.00     0.051 C 
BRANCH   9  12
ATOM     10  C1  MOL A   1      14.711 -14.898  -7.918  1.00  0.00     0.006 C 
ATOM     11  N2  MOL A   1      14.755 -16.346  -7.771  1.00  0.00    -0.359 N 
ATOM     12  C3  MOL A   1      14.495 -16.986  -6.517  1.00  0.00     0.222 C 
ATOM     13  O4  MOL A   1      14.225 -16.293  -5.498  1.00  0.00    -0.275 OA
ENDBRANCH   9  12
ENDBRANCH   8   9
BRANCH   8  14
ATOM     14  N7  MOL A   1      13.011 -19.831  -7.801  1.00  0.00    -0.346 N 
ATOM     15  C8  MOL A   1      11.879 -19.275  -8.473  1.00  0.00     0.258 C 
ATOM     16  O9  MOL A   1      11.971 -18.162  -9.057  1.00  0.00    -0.271 OA
BRANCH  15  17
ATOM     17 C10  MOL A   1      10.576 -20.014  -8.502  1.00  0.00     0.167 C 
BRANCH  17  18
ATOM     18 O11  MOL A   1      10.270 -20.436  -9.829  1.00  0.00    -0.480 OA
BRANCH  18  19
ATOM     19 C12  MOL A   1       9.004 -20.907 -10.184  1.00  0.00     0.166 A 
ATOM     20 C13  MOL A   1       8.028 -20.041 -10.730  1.00  0.00     0.012 A 
ATOM     21 C21  MOL A   1       6.796 -20.572 -11.146  1.00  0.00    -0.054 A 
ATOM     22 C22  MOL A   1       6.518 -21.929 -10.981  1.00  0.00    -0.058 A 
ATOM     23 C23  MOL A   1       7.463 -22.772 -10.396  1.00  0.00    -0.016 A 
ATOM     24 C24  MOL A   1       8.712 -22.267  -9.989  1.00  0.00     0.161 A 
BRANCH  20  25
ATOM     25 C14  MOL A   1       8.274 -18.555 -10.875  1.00  0.00     0.028 C 
BRANCH  25  26
ATOM     26 N15  MOL A   1       7.340 -17.792 -10.022  1.00  0.00    -0.287 NA
ATOM     27 C16  MOL A   1       7.822 -16.421  -9.784  1.00  0.00     0.064 C 
ATOM     28 C17  MOL A   1       8.025 -16.671  -8.302  1.00  0.00     0.272 C 
ATOM     29 F18  MOL A   1       7.169 -15.945  -7.494  1.00  0.00    -0.204 F 
ATOM     30 F19  MOL A   1       9.351 -16.620  -7.905  1.00  0.00    -0.204 F 
ATOM     31 C20  MOL A   1       7.537 -18.078  -8.590  1.00  0.00     0.064 C 
ENDBRANCH  25  26
ENDBRANCH  20  25
BRANCH  24  32
ATOM     32 O25  MOL A   1       9.688 -23.081  -9.397  1.00  0.00    -0.493 OA
ATOM     33 C26  MOL A   1      10.317 -24.184 -10.042  1.00  0.00     0.078 C 
ENDBRANCH  24  32
ENDBRANCH  18  19
ENDBRANCH  17  18
ENDBRANCH  15  17
ENDBRANCH   8  14
ENDBRANCH   1   8
TORSDOF 10
ENDMDL
MODEL 254
REMARK VINA RESULT:    -7.249      5.630     10.495
REMARK INTER + INTRA:         -12.536
REMARK INTER:                 -10.836
REMARK INTRA:                  -1.699
REMARK UNBOUND:                -1.048
REMARK  10 active torsions:
REMARK  status: ('A' for Active; 'I' for Inactive)
REMARK   1   A    between atoms:  C27_1   and   C6_8  
REMARK   2   A    between atoms:  C6_8    and   C5_9  
REMARK   3   A    between atoms:  C5_9    and   C3_12 
REMARK   4   A    between atoms:  C6_8    and   N7_14 
REMARK   5   A    between atoms:  C8_15   and  C10_17 
REMARK   6   A    between atoms: C10_17   and  O11_18 
REMARK   7   A    between atoms: O11_18   and  C12_19 
REMARK   8   A    between atoms: C13_20   and  C14_25 
REMARK   9   A    between atoms: C14_25   and  N15_26 
REMARK   10  A    between atoms: C24_24   and  O25_32 
ROOT
ATOM      1 C27  MOL A   1       8.790 -20.359  -9.518  1.00  0.00    -0.024 A 
ATOM      2 C28  MOL A   1       7.505 -20.700  -9.059  1.00  0.00    -0.057 A 
ATOM      3 C29  MOL A   1       7.097 -22.038  -9.025  1.00  0.00    -0.061 A 
ATOM      4 C30  MOL A   1       7.966 -23.047  -9.448  1.00  0.00    -0.048 A 
ATOM      5 C31  MOL A   1       9.249 -22.722  -9.904  1.00  0.00     0.018 A 
ATOM      6 Br32 MOL A   1      10.446 -24.106 -10.462  1.00  0.00    -0.051 Br
ATOM      7 C33  MOL A   1       9.658 -21.385  -9.944  1.00  0.00    -0.043 A 
ENDROOT
BRANCH   1   8
ATOM      8  C6  MOL A   1       9.197 -18.905  -9.620  1.00  0.00     0.063 C 
BRANCH   8   9
ATOM      9  C5  MOL A   1       9.153 -18.447 -11.088  1.00  0.00     0.051 C 
BRANCH   9  12
ATOM     10  C1  MOL A   1       6.292 -15.819 -10.809  1.00  0.00     0.006 C 
ATOM     11  N2  MOL A   1       7.495 -16.593 -10.541  1.00  0.00    -0.359 N 
ATOM     12  C3  MOL A   1       7.901 -17.674 -11.387  1.00  0.00     0.222 C 
ATOM     13  O4  MOL A   1       7.208 -17.983 -12.394  1.00  0.00    -0.275 OA
ENDBRANCH   9  12
ENDBRANCH   8   9
BRANCH   8  14
ATOM     14  N7  MOL A   1      10.539 -18.713  -9.059  1.00  0.00    -0.346 N 
ATOM     15  C8  MOL A   1      10.858 -17.629  -8.183  1.00  0.00     0.258 C 
ATOM     16  O9  MOL A   1       9.977 -16.785  -7.870  1.00  0.00    -0.271 OA
BRANCH  15  17
ATOM     17 C10  MOL A   1      12.239 -17.494  -7.616  1.00  0.00     0.167 C 
BRANCH  17  18
ATOM     18 O11  MOL A   1      13.205 -17.440  -8.664  1.00  0.00    -0.480 OA
BRANCH  18  19
ATOM     19 C12  MOL A   1      14.577 -17.534  -8.413  1.00  0.00     0.166 A 
ATOM     20 C13  MOL A   1      15.230 -18.788  -8.381  1.00  0.00     0.012 A 
ATOM     21 C21  MOL A   1      16.623 -18.831  -8.204  1.00  0.00    -0.054 A 
ATOM     22 C22  MOL A   1      17.349 -17.655  -8.015  1.00  0.00    -0.058 A 
ATOM     23 C23  MOL A   1      16.695 -16.423  -7.997  1.00  0.00    -0.016 A 
ATOM     24 C24  MOL A   1      15.303 -16.353  -8.192  1.00  0.00     0.161 A 
BRANCH  20  25
ATOM     25 C14  MOL A   1      14.468 -20.087  -8.529  1.00  0.00     0.028 C 
BRANCH  25  26
ATOM     26 N15  MOL A   1      14.366 -20.776  -7.227  1.00  0.00    -0.287 NA
ATOM     27 C16  MOL A   1      14.270 -22.237  -7.393  1.00  0.00     0.064 C 
ATOM     28 C17  MOL A   1      12.856 -22.280  -6.848  1.00  0.00     0.272 C 
ATOM     29 F18  MOL A   1      12.747 -22.942  -5.638  1.00  0.00    -0.204 F 
ATOM     30 F19  MOL A   1      11.909 -22.661  -7.785  1.00  0.00    -0.204 F 
ATOM     31 C20  MOL A   1      12.989 -20.776  -6.705  1.00  0.00     0.064 C 
ENDBRANCH  25  26
ENDBRANCH  20  25
BRANCH  24  32
ATOM     32 O25  MOL A   1      14.609 -15.135  -8.180  1.00  0.00    -0.493 OA
ATOM     33 C26  MOL A   1      14.128 -14.493  -7.004  1.00  0.00     0.078 C 
ENDBRANCH  24  32
ENDBRANCH  18  19
ENDBRANCH  17  18
ENDBRANCH  15  17
ENDBRANCH   8  14
ENDBRANCH   1   8
TORSDOF 10
ENDMDL
MODEL 255
REMARK VINA RESULT:    -7.248      6.027     10.638
REMARK INTER + INTRA:         -12.534
REMARK INTER:                 -10.880
REMARK INTRA:                  -1.654
REMARK UNBOUND:                -1.048
REMARK  10 active torsions:
REMARK  status: ('A' for Active; 'I' for Inactive)
REMARK   1   A    between atoms:  C27_1   and   C6_8  
REMARK   2   A    between atoms:  C6_8    and   C5_9  
REMARK   3   A    between atoms:  C5_9    and   C3_12 
REMARK   4   A    between atoms:  C6_8    and   N7_14 
REMARK   5   A    between atoms:  C8_15   and  C10_17 
REMARK   6   A    between atoms: C10_17   and  O11_18 
REMARK   7   A    between atoms: O11_18   and  C12_19 
REMARK   8   A    between atoms: C13_20   and  C14_25 
REMARK   9   A    between atoms: C14_25   and  N15_26 
REMARK   10  A    between atoms: C24_24   and  O25_32 
ROOT
ATOM      1 C27  MOL A   1       8.853 -17.765  -9.031  1.00  0.00    -0.024 A 
ATOM      2 C28  MOL A   1       7.993 -16.989  -8.232  1.00  0.00    -0.057 A 
ATOM      3 C29  MOL A   1       6.908 -16.317  -8.806  1.00  0.00    -0.061 A 
ATOM      4 C30  MOL A   1       6.672 -16.412 -10.180  1.00  0.00    -0.048 A 
ATOM      5 C31  MOL A   1       7.517 -17.182 -10.986  1.00  0.00     0.018 A 
ATOM      6 Br32 MOL A   1       7.180 -17.329 -12.863  1.00  0.00    -0.051 Br
ATOM      7 C33  MOL A   1       8.606 -17.851 -10.417  1.00  0.00    -0.043 A 
ENDROOT
BRANCH   1   8
ATOM      8  C6  MOL A   1      10.065 -18.429  -8.416  1.00  0.00     0.063 C 
BRANCH   8   9
ATOM      9  C5  MOL A   1       9.649 -19.726  -7.699  1.00  0.00     0.051 C 
BRANCH   9  12
ATOM     10  C1  MOL A   1       9.137 -22.193 -10.670  1.00  0.00     0.006 C 
ATOM     11  N2  MOL A   1       9.737 -21.246  -9.741  1.00  0.00    -0.359 N 
ATOM     12  C3  MOL A   1       8.999 -20.694  -8.646  1.00  0.00     0.222 C 
ATOM     13  O4  MOL A   1       7.794 -21.021  -8.466  1.00  0.00    -0.275 OA
ENDBRANCH   9  12
ENDBRANCH   8   9
BRANCH   8  14
ATOM     14  N7  MOL A   1      10.727 -17.513  -7.481  1.00  0.00    -0.346 N 
ATOM     15  C8  MOL A   1      12.069 -17.060  -7.669  1.00  0.00     0.258 C 
ATOM     16  O9  MOL A   1      12.740 -17.453  -8.660  1.00  0.00    -0.271 OA
BRANCH  15  17
ATOM     17 C10  MOL A   1      12.689 -16.102  -6.696  1.00  0.00     0.167 C 
BRANCH  17  18
ATOM     18 O11  MOL A   1      14.108 -16.245  -6.689  1.00  0.00    -0.480 OA
BRANCH  18  19
ATOM     19 C12  MOL A   1      14.797 -16.745  -5.582  1.00  0.00     0.166 A 
ATOM     20 C13  MOL A   1      15.467 -17.989  -5.638  1.00  0.00     0.012 A 
ATOM     21 C21  MOL A   1      16.213 -18.417  -4.527  1.00  0.00    -0.054 A 
ATOM     22 C22  MOL A   1      16.255 -17.647  -3.364  1.00  0.00    -0.058 A 
ATOM     23 C23  MOL A   1      15.552 -16.444  -3.293  1.00  0.00    -0.016 A 
ATOM     24 C24  MOL A   1      14.814 -15.986  -4.400  1.00  0.00     0.161 A 
BRANCH  20  25
ATOM     25 C14  MOL A   1      15.400 -18.875  -6.862  1.00  0.00     0.028 C 
BRANCH  25  26
ATOM     26 N15  MOL A   1      14.889 -20.214  -6.503  1.00  0.00    -0.287 NA
ATOM     27 C16  MOL A   1      14.778 -21.086  -7.684  1.00  0.00     0.064 C 
ATOM     28 C17  MOL A   1      13.266 -21.144  -7.591  1.00  0.00     0.272 C 
ATOM     29 F18  MOL A   1      12.776 -22.399  -7.276  1.00  0.00    -0.204 F 
ATOM     30 F19  MOL A   1      12.619 -20.540  -8.657  1.00  0.00    -0.204 F 
ATOM     31 C20  MOL A   1      13.420 -20.235  -6.388  1.00  0.00     0.064 C 
ENDBRANCH  25  26
ENDBRANCH  20  25
BRANCH  24  32
ATOM     32 O25  MOL A   1      14.094 -14.784  -4.369  1.00  0.00    -0.493 OA
ATOM     33 C26  MOL A   1      14.221 -13.794  -3.354  1.00  0.00     0.078 C 
ENDBRANCH  24  32
ENDBRANCH  18  19
ENDBRANCH  17  18
ENDBRANCH  15  17
ENDBRANCH   8  14
ENDBRANCH   1   8
TORSDOF 10
ENDMDL
MODEL 256
REMARK VINA RESULT:    -7.245      5.430      8.600
REMARK INTER + INTRA:         -12.529
REMARK INTER:                 -11.958
REMARK INTRA:                  -0.571
REMARK UNBOUND:                -1.048
REMARK  10 active torsions:
REMARK  status: ('A' for Active; 'I' for Inactive)
REMARK   1   A    between atoms:  C27_1   and   C6_8  
REMARK   2   A    between atoms:  C6_8    and   C5_9  
REMARK   3   A    between atoms:  C5_9    and   C3_12 
REMARK   4   A    between atoms:  C6_8    and   N7_14 
REMARK   5   A    between atoms:  C8_15   and  C10_17 
REMARK   6   A    between atoms: C10_17   and  O11_18 
REMARK   7   A    between atoms: O11_18   and  C12_19 
REMARK   8   A    between atoms: C13_20   and  C14_25 
REMARK   9   A    between atoms: C14_25   and  N15_26 
REMARK   10  A    between atoms: C24_24   and  O25_32 
ROOT
ATOM      1 C27  MOL A   1       0.463 -22.575  -9.657  1.00  0.00    -0.024 A 
ATOM      2 C28  MOL A   1      -0.210 -23.775  -9.364  1.00  0.00    -0.057 A 
ATOM      3 C29  MOL A   1      -1.147 -24.298 -10.262  1.00  0.00    -0.061 A 
ATOM      4 C30  MOL A   1      -1.422 -23.629 -11.458  1.00  0.00    -0.048 A 
ATOM      5 C31  MOL A   1      -0.757 -22.436 -11.763  1.00  0.00     0.018 A 
ATOM      6 Br32 MOL A   1      -1.118 -21.533 -13.411  1.00  0.00    -0.051 Br
ATOM      7 C33  MOL A   1       0.176 -21.908 -10.866  1.00  0.00    -0.043 A 
ENDROOT
BRANCH   1   8
ATOM      8  C6  MOL A   1       1.421 -21.978  -8.649  1.00  0.00     0.063 C 
BRANCH   8   9
ATOM      9  C5  MOL A   1       0.754 -20.794  -7.925  1.00  0.00     0.051 C 
BRANCH   9  12
ATOM     10  C1  MOL A   1      -3.133 -20.551  -7.913  1.00  0.00     0.006 C 
ATOM     11  N2  MOL A   1      -1.728 -20.291  -8.191  1.00  0.00    -0.359 N 
ATOM     12  C3  MOL A   1      -0.685 -21.081  -7.610  1.00  0.00     0.222 C 
ATOM     13  O4  MOL A   1      -0.970 -22.029  -6.828  1.00  0.00    -0.275 OA
ENDBRANCH   9  12
ENDBRANCH   8   9
BRANCH   8  14
ATOM     14  N7  MOL A   1       2.656 -21.548  -9.313  1.00  0.00    -0.346 N 
ATOM     15  C8  MOL A   1       3.908 -21.464  -8.630  1.00  0.00     0.258 C 
ATOM     16  O9  MOL A   1       3.984 -21.754  -7.406  1.00  0.00    -0.271 OA
BRANCH  15  17
ATOM     17 C10  MOL A   1       5.146 -21.044  -9.364  1.00  0.00     0.167 C 
BRANCH  17  18
ATOM     18 O11  MOL A   1       6.124 -20.551  -8.451  1.00  0.00    -0.480 OA
BRANCH  18  19
ATOM     19 C12  MOL A   1       7.315 -19.964  -8.887  1.00  0.00     0.166 A 
ATOM     20 C13  MOL A   1       7.412 -18.567  -9.083  1.00  0.00     0.012 A 
ATOM     21 C21  MOL A   1       8.651 -18.011  -9.445  1.00  0.00    -0.054 A 
ATOM     22 C22  MOL A   1       9.760 -18.830  -9.655  1.00  0.00    -0.058 A 
ATOM     23 C23  MOL A   1       9.649 -20.213  -9.510  1.00  0.00    -0.016 A 
ATOM     24 C24  MOL A   1       8.424 -20.791  -9.128  1.00  0.00     0.161 A 
BRANCH  20  25
ATOM     25 C14  MOL A   1       6.218 -17.654  -8.917  1.00  0.00     0.028 C 
BRANCH  25  26
ATOM     26 N15  MOL A   1       5.971 -17.385  -7.485  1.00  0.00    -0.287 NA
ATOM     27 C16  MOL A   1       4.561 -17.615  -7.127  1.00  0.00     0.064 C 
ATOM     28 C17  MOL A   1       4.322 -16.148  -6.826  1.00  0.00     0.272 C 
ATOM     29 F18  MOL A   1       4.068 -15.889  -5.491  1.00  0.00    -0.204 F 
ATOM     30 F19  MOL A   1       3.432 -15.539  -7.695  1.00  0.00    -0.204 F 
ATOM     31 C20  MOL A   1       5.774 -15.950  -7.215  1.00  0.00     0.064 C 
ENDBRANCH  25  26
ENDBRANCH  20  25
BRANCH  24  32
ATOM     32 O25  MOL A   1       8.270 -22.176  -8.972  1.00  0.00    -0.493 OA
ATOM     33 C26  MOL A   1       7.910 -23.070 -10.020  1.00  0.00     0.078 C 
ENDBRANCH  24  32
ENDBRANCH  18  19
ENDBRANCH  17  18
ENDBRANCH  15  17
ENDBRANCH   8  14
ENDBRANCH   1   8
TORSDOF 10
ENDMDL
MODEL 257
REMARK VINA RESULT:    -7.244      4.687      7.583
REMARK INTER + INTRA:         -12.527
REMARK INTER:                 -11.133
REMARK INTRA:                  -1.394
REMARK UNBOUND:                -1.048
REMARK  10 active torsions:
REMARK  status: ('A' for Active; 'I' for Inactive)
REMARK   1   A    between atoms:  C27_1   and   C6_8  
REMARK   2   A    between atoms:  C6_8    and   C5_9  
REMARK   3   A    between atoms:  C5_9    and   C3_12 
REMARK   4   A    between atoms:  C6_8    and   N7_14 
REMARK   5   A    between atoms:  C8_15   and  C10_17 
REMARK   6   A    between atoms: C10_17   and  O11_18 
REMARK   7   A    between atoms: O11_18   and  C12_19 
REMARK   8   A    between atoms: C13_20   and  C14_25 
REMARK   9   A    between atoms: C14_25   and  N15_26 
REMARK   10  A    between atoms: C24_24   and  O25_32 
ROOT
ATOM      1 C27  MOL A   1      13.968 -19.803  -8.256  1.00  0.00    -0.024 A 
ATOM      2 C28  MOL A   1      15.197 -20.083  -8.880  1.00  0.00    -0.057 A 
ATOM      3 C29  MOL A   1      15.758 -21.361  -8.797  1.00  0.00    -0.061 A 
ATOM      4 C30  MOL A   1      15.100 -22.372  -8.091  1.00  0.00    -0.048 A 
ATOM      5 C31  MOL A   1      13.875 -22.108  -7.468  1.00  0.00     0.018 A 
ATOM      6 Br32 MOL A   1      12.964 -23.498  -6.521  1.00  0.00    -0.051 Br
ATOM      7 C33  MOL A   1      13.313 -20.830  -7.544  1.00  0.00    -0.043 A 
ENDROOT
BRANCH   1   8
ATOM      8  C6  MOL A   1      13.404 -18.399  -8.288  1.00  0.00     0.063 C 
BRANCH   8   9
ATOM      9  C5  MOL A   1      13.703 -17.680  -6.961  1.00  0.00     0.051 C 
BRANCH   9  12
ATOM     10  C1  MOL A   1      16.650 -15.282  -7.820  1.00  0.00     0.006 C 
ATOM     11  N2  MOL A   1      15.341 -15.917  -7.797  1.00  0.00    -0.359 N 
ATOM     12  C3  MOL A   1      15.067 -17.053  -6.970  1.00  0.00     0.222 C 
ATOM     13  O4  MOL A   1      15.974 -17.535  -6.237  1.00  0.00    -0.275 OA
ENDBRANCH   9  12
ENDBRANCH   8   9
BRANCH   8  14
ATOM     14  N7  MOL A   1      11.959 -18.438  -8.541  1.00  0.00    -0.346 N 
ATOM     15  C8  MOL A   1      11.410 -18.497  -9.859  1.00  0.00     0.258 C 
ATOM     16  O9  MOL A   1      12.170 -18.507 -10.864  1.00  0.00    -0.271 OA
BRANCH  15  17
ATOM     17 C10  MOL A   1       9.926 -18.561 -10.060  1.00  0.00     0.167 C 
BRANCH  17  18
ATOM     18 O11  MOL A   1       9.315 -19.331  -9.027  1.00  0.00    -0.480 OA
BRANCH  18  19
ATOM     19 C12  MOL A   1       8.280 -20.232  -9.287  1.00  0.00     0.166 A 
ATOM     20 C13  MOL A   1       6.955 -19.784  -9.493  1.00  0.00     0.012 A 
ATOM     21 C21  MOL A   1       5.960 -20.717  -9.831  1.00  0.00    -0.054 A 
ATOM     22 C22  MOL A   1       6.263 -22.076  -9.914  1.00  0.00    -0.058 A 
ATOM     23 C23  MOL A   1       7.561 -22.522  -9.661  1.00  0.00    -0.016 A 
ATOM     24 C24  MOL A   1       8.578 -21.603  -9.341  1.00  0.00     0.161 A 
BRANCH  20  25
ATOM     25 C14  MOL A   1       6.577 -18.325  -9.359  1.00  0.00     0.028 C 
BRANCH  25  26
ATOM     26 N15  MOL A   1       6.393 -17.969  -7.937  1.00  0.00    -0.287 NA
ATOM     27 C16  MOL A   1       4.969 -17.815  -7.597  1.00  0.00     0.064 C 
ATOM     28 C17  MOL A   1       5.117 -16.331  -7.328  1.00  0.00     0.272 C 
ATOM     29 F18  MOL A   1       4.926 -15.985  -6.002  1.00  0.00    -0.204 F 
ATOM     30 F19  MOL A   1       4.425 -15.530  -8.223  1.00  0.00    -0.204 F 
ATOM     31 C20  MOL A   1       6.574 -16.527  -7.698  1.00  0.00     0.064 C 
ENDBRANCH  25  26
ENDBRANCH  20  25
BRANCH  24  32
ATOM     32 O25  MOL A   1       9.894 -22.011  -9.079  1.00  0.00    -0.493 OA
ATOM     33 C26  MOL A   1      10.404 -23.312  -9.350  1.00  0.00     0.078 C 
ENDBRANCH  24  32
ENDBRANCH  18  19
ENDBRANCH  17  18
ENDBRANCH  15  17
ENDBRANCH   8  14
ENDBRANCH   1   8
TORSDOF 10
ENDMDL
MODEL 258
REMARK VINA RESULT:    -7.236     11.445     14.531
REMARK INTER + INTRA:         -12.514
REMARK INTER:                 -11.060
REMARK INTRA:                  -1.453
REMARK UNBOUND:                -1.048
REMARK  10 active torsions:
REMARK  status: ('A' for Active; 'I' for Inactive)
REMARK   1   A    between atoms:  C27_1   and   C6_8  
REMARK   2   A    between atoms:  C6_8    and   C5_9  
REMARK   3   A    between atoms:  C5_9    and   C3_12 
REMARK   4   A    between atoms:  C6_8    and   N7_14 
REMARK   5   A    between atoms:  C8_15   and  C10_17 
REMARK   6   A    between atoms: C10_17   and  O11_18 
REMARK   7   A    between atoms: O11_18   and  C12_19 
REMARK   8   A    between atoms: C13_20   and  C14_25 
REMARK   9   A    between atoms: C14_25   and  N15_26 
REMARK   10  A    between atoms: C24_24   and  O25_32 
ROOT
ATOM      1 C27  MOL A   1      15.428 -16.691   0.248  1.00  0.00    -0.024 A 
ATOM      2 C28  MOL A   1      14.349 -16.292   1.059  1.00  0.00    -0.057 A 
ATOM      3 C29  MOL A   1      13.377 -17.219   1.449  1.00  0.00    -0.061 A 
ATOM      4 C30  MOL A   1      13.470 -18.550   1.035  1.00  0.00    -0.048 A 
ATOM      5 C31  MOL A   1      14.539 -18.961   0.231  1.00  0.00     0.018 A 
ATOM      6 Br32 MOL A   1      14.678 -20.789  -0.317  1.00  0.00    -0.051 Br
ATOM      7 C33  MOL A   1      15.511 -18.037  -0.166  1.00  0.00    -0.043 A 
ENDROOT
BRANCH   1   8
ATOM      8  C6  MOL A   1      16.435 -15.668  -0.230  1.00  0.00     0.063 C 
BRANCH   8   9
ATOM      9  C5  MOL A   1      16.101 -14.285   0.357  1.00  0.00     0.051 C 
BRANCH   9  12
ATOM     10  C1  MOL A   1      19.434 -13.378   2.157  1.00  0.00     0.006 C 
ATOM     11  N2  MOL A   1      18.469 -13.766   1.139  1.00  0.00    -0.359 N 
ATOM     12  C3  MOL A   1      17.073 -13.893   1.432  1.00  0.00     0.222 C 
ATOM     13  O4  MOL A   1      16.649 -13.673   2.599  1.00  0.00    -0.275 OA
ENDBRANCH   9  12
ENDBRANCH   8   9
BRANCH   8  14
ATOM     14  N7  MOL A   1      16.451 -15.617  -1.696  1.00  0.00    -0.346 N 
ATOM     15  C8  MOL A   1      17.592 -15.179  -2.438  1.00  0.00     0.258 C 
ATOM     16  O9  MOL A   1      18.635 -14.806  -1.838  1.00  0.00    -0.271 OA
BRANCH  15  17
ATOM     17 C10  MOL A   1      17.564 -15.171  -3.937  1.00  0.00     0.167 C 
BRANCH  17  18
ATOM     18 O11  MOL A   1      16.483 -15.964  -4.420  1.00  0.00    -0.480 OA
BRANCH  18  19
ATOM     19 C12  MOL A   1      15.808 -15.656  -5.604  1.00  0.00     0.166 A 
ATOM     20 C13  MOL A   1      16.277 -16.120  -6.855  1.00  0.00     0.012 A 
ATOM     21 C21  MOL A   1      15.525 -15.854  -8.011  1.00  0.00    -0.054 A 
ATOM     22 C22  MOL A   1      14.355 -15.098  -7.935  1.00  0.00    -0.058 A 
ATOM     23 C23  MOL A   1      13.921 -14.599  -6.707  1.00  0.00    -0.016 A 
ATOM     24 C24  MOL A   1      14.647 -14.870  -5.533  1.00  0.00     0.161 A 
BRANCH  20  25
ATOM     25 C14  MOL A   1      17.569 -16.897  -6.983  1.00  0.00     0.028 C 
BRANCH  25  26
ATOM     26 N15  MOL A   1      17.360 -18.311  -6.613  1.00  0.00    -0.287 NA
ATOM     27 C16  MOL A   1      18.512 -18.854  -5.874  1.00  0.00     0.064 C 
ATOM     28 C17  MOL A   1      18.864 -19.822  -6.986  1.00  0.00     0.272 C 
ATOM     29 F18  MOL A   1      18.691 -21.151  -6.642  1.00  0.00    -0.204 F 
ATOM     30 F19  MOL A   1      20.079 -19.553  -7.596  1.00  0.00    -0.204 F 
ATOM     31 C20  MOL A   1      17.678 -19.228  -7.721  1.00  0.00     0.064 C 
ENDBRANCH  25  26
ENDBRANCH  20  25
BRANCH  24  32
ATOM     32 O25  MOL A   1      14.245 -14.385  -4.280  1.00  0.00    -0.493 OA
ATOM     33 C26  MOL A   1      13.223 -14.971  -3.479  1.00  0.00     0.078 C 
ENDBRANCH  24  32
ENDBRANCH  18  19
ENDBRANCH  17  18
ENDBRANCH  15  17
ENDBRANCH   8  14
ENDBRANCH   1   8
TORSDOF 10
ENDMDL
MODEL 259
REMARK VINA RESULT:    -7.233      7.232     12.070
REMARK INTER + INTRA:         -12.509
REMARK INTER:                 -11.410
REMARK INTRA:                  -1.099
REMARK UNBOUND:                -1.048
REMARK  10 active torsions:
REMARK  status: ('A' for Active; 'I' for Inactive)
REMARK   1   A    between atoms:  C27_1   and   C6_8  
REMARK   2   A    between atoms:  C6_8    and   C5_9  
REMARK   3   A    between atoms:  C5_9    and   C3_12 
REMARK   4   A    between atoms:  C6_8    and   N7_14 
REMARK   5   A    between atoms:  C8_15   and  C10_17 
REMARK   6   A    between atoms: C10_17   and  O11_18 
REMARK   7   A    between atoms: O11_18   and  C12_19 
REMARK   8   A    between atoms: C13_20   and  C14_25 
REMARK   9   A    between atoms: C14_25   and  N15_26 
REMARK   10  A    between atoms: C24_24   and  O25_32 
ROOT
ATOM      1 C27  MOL A   1      10.344 -18.104  -8.581  1.00  0.00    -0.024 A 
ATOM      2 C28  MOL A   1       9.905 -16.996  -7.834  1.00  0.00    -0.057 A 
ATOM      3 C29  MOL A   1       8.775 -16.275  -8.235  1.00  0.00    -0.061 A 
ATOM      4 C30  MOL A   1       8.075 -16.652  -9.384  1.00  0.00    -0.048 A 
ATOM      5 C31  MOL A   1       8.499 -17.754 -10.135  1.00  0.00     0.018 A 
ATOM      6 Br32 MOL A   1       7.527 -18.281 -11.696  1.00  0.00    -0.051 Br
ATOM      7 C33  MOL A   1       9.631 -18.474  -9.740  1.00  0.00    -0.043 A 
ENDROOT
BRANCH   1   8
ATOM      8  C6  MOL A   1      11.608 -18.834  -8.181  1.00  0.00     0.063 C 
BRANCH   8   9
ATOM      9  C5  MOL A   1      11.258 -20.220  -7.610  1.00  0.00     0.051 C 
BRANCH   9  12
ATOM     10  C1  MOL A   1      13.676 -23.028  -6.407  1.00  0.00     0.006 C 
ATOM     11  N2  MOL A   1      12.513 -22.162  -6.541  1.00  0.00    -0.359 N 
ATOM     12  C3  MOL A   1      12.476 -21.089  -7.489  1.00  0.00     0.222 C 
ATOM     13  O4  MOL A   1      13.470 -20.869  -8.234  1.00  0.00    -0.275 OA
ENDBRANCH   9  12
ENDBRANCH   8   9
BRANCH   8  14
ATOM     14  N7  MOL A   1      12.361 -18.046  -7.200  1.00  0.00    -0.346 N 
ATOM     15  C8  MOL A   1      13.471 -17.223  -7.563  1.00  0.00     0.258 C 
ATOM     16  O9  MOL A   1      13.848 -17.159  -8.764  1.00  0.00    -0.271 OA
BRANCH  15  17
ATOM     17 C10  MOL A   1      14.190 -16.417  -6.523  1.00  0.00     0.167 C 
BRANCH  17  18
ATOM     18 O11  MOL A   1      15.529 -16.152  -6.935  1.00  0.00    -0.480 OA
BRANCH  18  19
ATOM     19 C12  MOL A   1      16.601 -16.953  -6.531  1.00  0.00     0.166 A 
ATOM     20 C13  MOL A   1      17.018 -16.989  -5.180  1.00  0.00     0.012 A 
ATOM     21 C21  MOL A   1      18.048 -17.867  -4.804  1.00  0.00    -0.054 A 
ATOM     22 C22  MOL A   1      18.687 -18.659  -5.758  1.00  0.00    -0.058 A 
ATOM     23 C23  MOL A   1      18.308 -18.585  -7.099  1.00  0.00    -0.016 A 
ATOM     24 C24  MOL A   1      17.265 -17.727  -7.496  1.00  0.00     0.161 A 
BRANCH  20  25
ATOM     25 C14  MOL A   1      16.385 -16.106  -4.127  1.00  0.00     0.028 C 
BRANCH  25  26
ATOM     26 N15  MOL A   1      16.986 -16.370  -2.804  1.00  0.00    -0.287 NA
ATOM     27 C16  MOL A   1      15.978 -16.324  -1.732  1.00  0.00     0.064 C 
ATOM     28 C17  MOL A   1      16.598 -15.093  -1.101  1.00  0.00     0.272 C 
ATOM     29 F18  MOL A   1      17.146 -15.325   0.149  1.00  0.00    -0.204 F 
ATOM     30 F19  MOL A   1      15.790 -13.969  -1.159  1.00  0.00    -0.204 F 
ATOM     31 C20  MOL A   1      17.610 -15.166  -2.227  1.00  0.00     0.064 C 
ENDBRANCH  25  26
ENDBRANCH  20  25
BRANCH  24  32
ATOM     32 O25  MOL A   1      16.855 -17.622  -8.833  1.00  0.00    -0.493 OA
ATOM     33 C26  MOL A   1      17.678 -17.149  -9.893  1.00  0.00     0.078 C 
ENDBRANCH  24  32
ENDBRANCH  18  19
ENDBRANCH  17  18
ENDBRANCH  15  17
ENDBRANCH   8  14
ENDBRANCH   1   8
TORSDOF 10
ENDMDL
MODEL 260
REMARK VINA RESULT:    -7.232     10.788     13.070
REMARK INTER + INTRA:         -12.508
REMARK INTER:                  -9.952
REMARK INTRA:                  -2.556
REMARK UNBOUND:                -1.048
REMARK  10 active torsions:
REMARK  status: ('A' for Active; 'I' for Inactive)
REMARK   1   A    between atoms:  C27_1   and   C6_8  
REMARK   2   A    between atoms:  C6_8    and   C5_9  
REMARK   3   A    between atoms:  C5_9    and   C3_12 
REMARK   4   A    between atoms:  C6_8    and   N7_14 
REMARK   5   A    between atoms:  C8_15   and  C10_17 
REMARK   6   A    between atoms: C10_17   and  O11_18 
REMARK   7   A    between atoms: O11_18   and  C12_19 
REMARK   8   A    between atoms: C13_20   and  C14_25 
REMARK   9   A    between atoms: C14_25   and  N15_26 
REMARK   10  A    between atoms: C24_24   and  O25_32 
ROOT
ATOM      1 C27  MOL A   1      16.316 -19.132  -4.619  1.00  0.00    -0.024 A 
ATOM      2 C28  MOL A   1      15.023 -19.654  -4.431  1.00  0.00    -0.057 A 
ATOM      3 C29  MOL A   1      14.594 -20.762  -5.170  1.00  0.00    -0.061 A 
ATOM      4 C30  MOL A   1      15.449 -21.358  -6.101  1.00  0.00    -0.048 A 
ATOM      5 C31  MOL A   1      16.738 -20.850  -6.295  1.00  0.00     0.018 A 
ATOM      6 Br32 MOL A   1      17.915 -21.680  -7.554  1.00  0.00    -0.051 Br
ATOM      7 C33  MOL A   1      17.169 -19.740  -5.562  1.00  0.00    -0.043 A 
ENDROOT
BRANCH   1   8
ATOM      8  C6  MOL A   1      16.746 -17.889  -3.869  1.00  0.00     0.063 C 
BRANCH   8   9
ATOM      9  C5  MOL A   1      15.958 -17.768  -2.552  1.00  0.00     0.051 C 
BRANCH   9  12
ATOM     10  C1  MOL A   1      14.666 -14.214  -1.618  1.00  0.00     0.006 C 
ATOM     11  N2  MOL A   1      14.725 -15.586  -2.103  1.00  0.00    -0.359 N 
ATOM     12  C3  MOL A   1      15.933 -16.352  -2.054  1.00  0.00     0.222 C 
ATOM     13  O4  MOL A   1      16.988 -15.842  -1.587  1.00  0.00    -0.275 OA
ENDBRANCH   9  12
ENDBRANCH   8   9
BRANCH   8  14
ATOM     14  N7  MOL A   1      16.546 -16.698  -4.702  1.00  0.00    -0.346 N 
ATOM     15  C8  MOL A   1      17.591 -16.130  -5.494  1.00  0.00     0.258 C 
ATOM     16  O9  MOL A   1      18.741 -16.643  -5.491  1.00  0.00    -0.271 OA
BRANCH  15  17
ATOM     17 C10  MOL A   1      17.325 -14.927  -6.348  1.00  0.00     0.167 C 
BRANCH  17  18
ATOM     18 O11  MOL A   1      17.010 -15.321  -7.682  1.00  0.00    -0.480 OA
BRANCH  18  19
ATOM     19 C12  MOL A   1      16.036 -16.284  -7.959  1.00  0.00     0.166 A 
ATOM     20 C13  MOL A   1      16.387 -17.548  -8.485  1.00  0.00     0.012 A 
ATOM     21 C21  MOL A   1      15.384 -18.514  -8.675  1.00  0.00    -0.054 A 
ATOM     22 C22  MOL A   1      14.051 -18.215  -8.394  1.00  0.00    -0.058 A 
ATOM     23 C23  MOL A   1      13.701 -16.949  -7.923  1.00  0.00    -0.016 A 
ATOM     24 C24  MOL A   1      14.690 -15.972  -7.706  1.00  0.00     0.161 A 
BRANCH  20  25
ATOM     25 C14  MOL A   1      17.814 -17.890  -8.851  1.00  0.00     0.028 C 
BRANCH  25  26
ATOM     26 N15  MOL A   1      17.877 -18.449 -10.217  1.00  0.00    -0.287 NA
ATOM     27 C16  MOL A   1      19.193 -19.047 -10.498  1.00  0.00     0.064 C 
ATOM     28 C17  MOL A   1      19.520 -18.011 -11.554  1.00  0.00     0.272 C 
ATOM     29 F18  MOL A   1      19.602 -18.528 -12.835  1.00  0.00    -0.204 F 
ATOM     30 F19  MOL A   1      20.580 -17.184 -11.215  1.00  0.00    -0.204 F 
ATOM     31 C20  MOL A   1      18.165 -17.416 -11.227  1.00  0.00     0.064 C 
ENDBRANCH  25  26
ENDBRANCH  20  25
BRANCH  24  32
ATOM     32 O25  MOL A   1      14.379 -14.689  -7.235  1.00  0.00    -0.493 OA
ATOM     33 C26  MOL A   1      13.641 -14.424  -6.047  1.00  0.00     0.078 C 
ENDBRANCH  24  32
ENDBRANCH  18  19
ENDBRANCH  17  18
ENDBRANCH  15  17
ENDBRANCH   8  14
ENDBRANCH   1   8
TORSDOF 10
ENDMDL
MODEL 261
REMARK VINA RESULT:    -7.231      7.818     11.395
REMARK INTER + INTRA:         -12.506
REMARK INTER:                 -10.300
REMARK INTRA:                  -2.206
REMARK UNBOUND:                -1.048
REMARK  10 active torsions:
REMARK  status: ('A' for Active; 'I' for Inactive)
REMARK   1   A    between atoms:  C27_1   and   C6_8  
REMARK   2   A    between atoms:  C6_8    and   C5_9  
REMARK   3   A    between atoms:  C5_9    and   C3_12 
REMARK   4   A    between atoms:  C6_8    and   N7_14 
REMARK   5   A    between atoms:  C8_15   and  C10_17 
REMARK   6   A    between atoms: C10_17   and  O11_18 
REMARK   7   A    between atoms: O11_18   and  C12_19 
REMARK   8   A    between atoms: C13_20   and  C14_25 
REMARK   9   A    between atoms: C14_25   and  N15_26 
REMARK   10  A    between atoms: C24_24   and  O25_32 
ROOT
ATOM      1 C27  MOL A   1      17.276 -18.632  -5.464  1.00  0.00    -0.024 A 
ATOM      2 C28  MOL A   1      18.297 -17.667  -5.545  1.00  0.00    -0.057 A 
ATOM      3 C29  MOL A   1      18.441 -16.705  -4.539  1.00  0.00    -0.061 A 
ATOM      4 C30  MOL A   1      17.570 -16.696  -3.447  1.00  0.00    -0.048 A 
ATOM      5 C31  MOL A   1      16.553 -17.652  -3.353  1.00  0.00     0.018 A 
ATOM      6 Br32 MOL A   1      15.374 -17.652  -1.846  1.00  0.00    -0.051 Br
ATOM      7 C33  MOL A   1      16.402 -18.612  -4.358  1.00  0.00    -0.043 A 
ENDROOT
BRANCH   1   8
ATOM      8  C6  MOL A   1      17.081 -19.624  -6.591  1.00  0.00     0.063 C 
BRANCH   8   9
ATOM      9  C5  MOL A   1      18.162 -19.418  -7.668  1.00  0.00     0.051 C 
BRANCH   9  12
ATOM     10  C1  MOL A   1      20.579 -21.984  -9.324  1.00  0.00     0.006 C 
ATOM     11  N2  MOL A   1      19.945 -20.738  -8.917  1.00  0.00    -0.359 N 
ATOM     12  C3  MOL A   1      18.786 -20.720  -8.077  1.00  0.00     0.222 C 
ATOM     13  O4  MOL A   1      18.282 -21.803  -7.672  1.00  0.00    -0.275 OA
ENDBRANCH   9  12
ENDBRANCH   8   9
BRANCH   8  14
ATOM     14  N7  MOL A   1      15.741 -19.479  -7.169  1.00  0.00    -0.346 N 
ATOM     15  C8  MOL A   1      14.807 -20.559  -7.226  1.00  0.00     0.258 C 
ATOM     16  O9  MOL A   1      15.121 -21.694  -6.778  1.00  0.00    -0.271 OA
BRANCH  15  17
ATOM     17 C10  MOL A   1      13.440 -20.349  -7.804  1.00  0.00     0.167 C 
BRANCH  17  18
ATOM     18 O11  MOL A   1      13.327 -19.040  -8.357  1.00  0.00    -0.480 OA
BRANCH  18  19
ATOM     19 C12  MOL A   1      12.244 -18.205  -8.070  1.00  0.00     0.166 A 
ATOM     20 C13  MOL A   1      12.374 -17.123  -7.169  1.00  0.00     0.012 A 
ATOM     21 C21  MOL A   1      11.282 -16.262  -6.971  1.00  0.00    -0.054 A 
ATOM     22 C22  MOL A   1      10.068 -16.498  -7.616  1.00  0.00    -0.058 A 
ATOM     23 C23  MOL A   1       9.927 -17.595  -8.466  1.00  0.00    -0.016 A 
ATOM     24 C24  MOL A   1      11.013 -18.460  -8.696  1.00  0.00     0.161 A 
BRANCH  20  25
ATOM     25 C14  MOL A   1      13.657 -16.867  -6.411  1.00  0.00     0.028 C 
BRANCH  25  26
ATOM     26 N15  MOL A   1      14.195 -15.532  -6.743  1.00  0.00    -0.287 NA
ATOM     27 C16  MOL A   1      14.636 -15.459  -8.146  1.00  0.00     0.064 C 
ATOM     28 C17  MOL A   1      16.091 -15.286  -7.756  1.00  0.00     0.272 C 
ATOM     29 F18  MOL A   1      16.610 -14.045  -8.081  1.00  0.00    -0.204 F 
ATOM     30 F19  MOL A   1      16.899 -16.347  -8.130  1.00  0.00    -0.204 F 
ATOM     31 C20  MOL A   1      15.599 -15.379  -6.324  1.00  0.00     0.064 C 
ENDBRANCH  25  26
ENDBRANCH  20  25
BRANCH  24  32
ATOM     32 O25  MOL A   1      10.912 -19.574  -9.541  1.00  0.00    -0.493 OA
ATOM     33 C26  MOL A   1      10.075 -19.641 -10.690  1.00  0.00     0.078 C 
ENDBRANCH  24  32
ENDBRANCH  18  19
ENDBRANCH  17  18
ENDBRANCH  15  17
ENDBRANCH   8  14
ENDBRANCH   1   8
TORSDOF 10
ENDMDL
MODEL 262
REMARK VINA RESULT:    -7.229      6.832     11.093
REMARK INTER + INTRA:         -12.504
REMARK INTER:                 -11.212
REMARK INTRA:                  -1.292
REMARK UNBOUND:                -1.048
REMARK  10 active torsions:
REMARK  status: ('A' for Active; 'I' for Inactive)
REMARK   1   A    between atoms:  C27_1   and   C6_8  
REMARK   2   A    between atoms:  C6_8    and   C5_9  
REMARK   3   A    between atoms:  C5_9    and   C3_12 
REMARK   4   A    between atoms:  C6_8    and   N7_14 
REMARK   5   A    between atoms:  C8_15   and  C10_17 
REMARK   6   A    between atoms: C10_17   and  O11_18 
REMARK   7   A    between atoms: O11_18   and  C12_19 
REMARK   8   A    between atoms: C13_20   and  C14_25 
REMARK   9   A    between atoms: C14_25   and  N15_26 
REMARK   10  A    between atoms: C24_24   and  O25_32 
ROOT
ATOM      1 C27  MOL A   1       8.208 -18.591  -8.585  1.00  0.00    -0.024 A 
ATOM      2 C28  MOL A   1       8.022 -17.198  -8.522  1.00  0.00    -0.057 A 
ATOM      3 C29  MOL A   1       6.769 -16.665  -8.203  1.00  0.00    -0.061 A 
ATOM      4 C30  MOL A   1       5.690 -17.515  -7.944  1.00  0.00    -0.048 A 
ATOM      5 C31  MOL A   1       5.862 -18.903  -8.000  1.00  0.00     0.018 A 
ATOM      6 Br32 MOL A   1       4.391 -20.067  -7.624  1.00  0.00    -0.051 Br
ATOM      7 C33  MOL A   1       7.113 -19.440  -8.324  1.00  0.00    -0.043 A 
ENDROOT
BRANCH   1   8
ATOM      8  C6  MOL A   1       9.548 -19.159  -9.002  1.00  0.00     0.063 C 
BRANCH   8   9
ATOM      9  C5  MOL A   1       9.663 -20.625  -8.549  1.00  0.00     0.051 C 
BRANCH   9  12
ATOM     10  C1  MOL A   1      10.124 -23.871 -10.652  1.00  0.00     0.006 C 
ATOM     11  N2  MOL A   1      10.066 -22.938  -9.536  1.00  0.00    -0.359 N 
ATOM     12  C3  MOL A   1       9.725 -21.560  -9.722  1.00  0.00     0.222 C 
ATOM     13  O4  MOL A   1       9.470 -21.122 -10.877  1.00  0.00    -0.275 OA
ENDBRANCH   9  12
ENDBRANCH   8   9
BRANCH   8  14
ATOM     14  N7  MOL A   1      10.638 -18.356  -8.437  1.00  0.00    -0.346 N 
ATOM     15  C8  MOL A   1      11.842 -18.080  -9.155  1.00  0.00     0.258 C 
ATOM     16  O9  MOL A   1      12.007 -18.537 -10.317  1.00  0.00    -0.271 OA
BRANCH  15  17
ATOM     17 C10  MOL A   1      12.914 -17.231  -8.540  1.00  0.00     0.167 C 
BRANCH  17  18
ATOM     18 O11  MOL A   1      13.422 -17.848  -7.359  1.00  0.00    -0.480 OA
BRANCH  18  19
ATOM     19 C12  MOL A   1      14.699 -17.567  -6.867  1.00  0.00     0.166 A 
ATOM     20 C13  MOL A   1      15.814 -18.356  -7.232  1.00  0.00     0.012 A 
ATOM     21 C21  MOL A   1      17.092 -17.989  -6.777  1.00  0.00    -0.054 A 
ATOM     22 C22  MOL A   1      17.255 -16.889  -5.935  1.00  0.00    -0.058 A 
ATOM     23 C23  MOL A   1      16.147 -16.142  -5.536  1.00  0.00    -0.016 A 
ATOM     24 C24  MOL A   1      14.860 -16.477  -5.995  1.00  0.00     0.161 A 
BRANCH  20  25
ATOM     25 C14  MOL A   1      15.669 -19.586  -8.100  1.00  0.00     0.028 C 
BRANCH  25  26
ATOM     26 N15  MOL A   1      14.922 -20.639  -7.381  1.00  0.00    -0.287 NA
ATOM     27 C16  MOL A   1      15.616 -21.051  -6.149  1.00  0.00     0.064 C 
ATOM     28 C17  MOL A   1      15.885 -22.445  -6.681  1.00  0.00     0.272 C 
ATOM     29 F18  MOL A   1      15.205 -23.440  -6.000  1.00  0.00    -0.204 F 
ATOM     30 F19  MOL A   1      17.229 -22.717  -6.876  1.00  0.00    -0.204 F 
ATOM     31 C20  MOL A   1      15.176 -21.979  -7.937  1.00  0.00     0.064 C 
ENDBRANCH  25  26
ENDBRANCH  20  25
BRANCH  24  32
ATOM     32 O25  MOL A   1      13.720 -15.753  -5.616  1.00  0.00    -0.493 OA
ATOM     33 C26  MOL A   1      13.750 -14.484  -4.971  1.00  0.00     0.078 C 
ENDBRANCH  24  32
ENDBRANCH  18  19
ENDBRANCH  17  18
ENDBRANCH  15  17
ENDBRANCH   8  14
ENDBRANCH   1   8
TORSDOF 10
ENDMDL
MODEL 263
REMARK VINA RESULT:    -7.227      4.956      8.316
REMARK INTER + INTRA:         -12.500
REMARK INTER:                 -12.556
REMARK INTRA:                   0.056
REMARK UNBOUND:                -1.048
REMARK  10 active torsions:
REMARK  status: ('A' for Active; 'I' for Inactive)
REMARK   1   A    between atoms:  C27_1   and   C6_8  
REMARK   2   A    between atoms:  C6_8    and   C5_9  
REMARK   3   A    between atoms:  C5_9    and   C3_12 
REMARK   4   A    between atoms:  C6_8    and   N7_14 
REMARK   5   A    between atoms:  C8_15   and  C10_17 
REMARK   6   A    between atoms: C10_17   and  O11_18 
REMARK   7   A    between atoms: O11_18   and  C12_19 
REMARK   8   A    between atoms: C13_20   and  C14_25 
REMARK   9   A    between atoms: C14_25   and  N15_26 
REMARK   10  A    between atoms: C24_24   and  O25_32 
ROOT
ATOM      1 C27  MOL A   1       8.831 -17.886 -10.249  1.00  0.00    -0.024 A 
ATOM      2 C28  MOL A   1       9.600 -18.659 -11.137  1.00  0.00    -0.057 A 
ATOM      3 C29  MOL A   1      10.939 -18.945 -10.849  1.00  0.00    -0.061 A 
ATOM      4 C30  MOL A   1      11.523 -18.463  -9.675  1.00  0.00    -0.048 A 
ATOM      5 C31  MOL A   1      10.768 -17.694  -8.781  1.00  0.00     0.018 A 
ATOM      6 Br32 MOL A   1      11.561 -17.052  -7.163  1.00  0.00    -0.051 Br
ATOM      7 C33  MOL A   1       9.431 -17.402  -9.068  1.00  0.00    -0.043 A 
ENDROOT
BRANCH   1   8
ATOM      8  C6  MOL A   1       7.406 -17.520 -10.603  1.00  0.00     0.063 C 
BRANCH   8   9
ATOM      9  C5  MOL A   1       7.172 -16.017 -10.364  1.00  0.00     0.051 C 
BRANCH   9  12
ATOM     10  C1  MOL A   1       3.812 -14.280 -11.295  1.00  0.00     0.006 C 
ATOM     11  N2  MOL A   1       4.943 -14.798 -10.538  1.00  0.00    -0.359 N 
ATOM     12  C3  MOL A   1       6.015 -15.505 -11.171  1.00  0.00     0.222 C 
ATOM     13  O4  MOL A   1       5.995 -15.700 -12.417  1.00  0.00    -0.275 OA
ENDBRANCH   9  12
ENDBRANCH   8   9
BRANCH   8  14
ATOM     14  N7  MOL A   1       6.465 -18.321  -9.812  1.00  0.00    -0.346 N 
ATOM     15  C8  MOL A   1       6.126 -17.998  -8.462  1.00  0.00     0.258 C 
ATOM     16  O9  MOL A   1       6.646 -17.000  -7.898  1.00  0.00    -0.271 OA
BRANCH  15  17
ATOM     17 C10  MOL A   1       5.137 -18.836  -7.708  1.00  0.00     0.167 C 
BRANCH  17  18
ATOM     18 O11  MOL A   1       5.455 -20.220  -7.837  1.00  0.00    -0.480 OA
BRANCH  18  19
ATOM     19 C12  MOL A   1       4.886 -21.021  -8.831  1.00  0.00     0.166 A 
ATOM     20 C13  MOL A   1       5.675 -21.566  -9.870  1.00  0.00     0.012 A 
ATOM     21 C21  MOL A   1       5.077 -22.430 -10.803  1.00  0.00    -0.054 A 
ATOM     22 C22  MOL A   1       3.713 -22.711 -10.735  1.00  0.00    -0.058 A 
ATOM     23 C23  MOL A   1       2.927 -22.132  -9.738  1.00  0.00    -0.016 A 
ATOM     24 C24  MOL A   1       3.507 -21.279  -8.781  1.00  0.00     0.161 A 
BRANCH  20  25
ATOM     25 C14  MOL A   1       7.146 -21.242 -10.007  1.00  0.00     0.028 C 
BRANCH  25  26
ATOM     26 N15  MOL A   1       7.945 -22.073  -9.084  1.00  0.00    -0.287 NA
ATOM     27 C16  MOL A   1       9.380 -21.750  -9.168  1.00  0.00     0.064 C 
ATOM     28 C17  MOL A   1       9.728 -23.111  -9.737  1.00  0.00     0.272 C 
ATOM     29 F18  MOL A   1      10.495 -23.889  -8.887  1.00  0.00    -0.204 F 
ATOM     30 F19  MOL A   1      10.203 -23.066 -11.038  1.00  0.00    -0.204 F 
ATOM     31 C20  MOL A   1       8.243 -23.401  -9.648  1.00  0.00     0.064 C 
ENDBRANCH  25  26
ENDBRANCH  20  25
BRANCH  24  32
ATOM     32 O25  MOL A   1       2.752 -20.677  -7.764  1.00  0.00    -0.493 OA
ATOM     33 C26  MOL A   1       1.478 -21.138  -7.326  1.00  0.00     0.078 C 
ENDBRANCH  24  32
ENDBRANCH  18  19
ENDBRANCH  17  18
ENDBRANCH  15  17
ENDBRANCH   8  14
ENDBRANCH   1   8
TORSDOF 10
ENDMDL
MODEL 264
REMARK VINA RESULT:    -7.223     11.185     13.889
REMARK INTER + INTRA:         -12.494
REMARK INTER:                 -10.406
REMARK INTRA:                  -2.088
REMARK UNBOUND:                -1.048
REMARK  10 active torsions:
REMARK  status: ('A' for Active; 'I' for Inactive)
REMARK   1   A    between atoms:  C27_1   and   C6_8  
REMARK   2   A    between atoms:  C6_8    and   C5_9  
REMARK   3   A    between atoms:  C5_9    and   C3_12 
REMARK   4   A    between atoms:  C6_8    and   N7_14 
REMARK   5   A    between atoms:  C8_15   and  C10_17 
REMARK   6   A    between atoms: C10_17   and  O11_18 
REMARK   7   A    between atoms: O11_18   and  C12_19 
REMARK   8   A    between atoms: C13_20   and  C14_25 
REMARK   9   A    between atoms: C14_25   and  N15_26 
REMARK   10  A    between atoms: C24_24   and  O25_32 
ROOT
ATOM      1 C27  MOL A   1      15.624 -16.362  -0.555  1.00  0.00    -0.024 A 
ATOM      2 C28  MOL A   1      14.463 -15.570  -0.620  1.00  0.00    -0.057 A 
ATOM      3 C29  MOL A   1      14.481 -14.249  -0.157  1.00  0.00    -0.061 A 
ATOM      4 C30  MOL A   1      15.655 -13.708   0.373  1.00  0.00    -0.048 A 
ATOM      5 C31  MOL A   1      16.817 -14.484   0.440  1.00  0.00     0.018 A 
ATOM      6 Br32 MOL A   1      18.430 -13.735   1.146  1.00  0.00    -0.051 Br
ATOM      7 C33  MOL A   1      16.802 -15.806  -0.016  1.00  0.00    -0.043 A 
ENDROOT
BRANCH   1   8
ATOM      8  C6  MOL A   1      15.577 -17.811  -0.990  1.00  0.00     0.063 C 
BRANCH   8   9
ATOM      9  C5  MOL A   1      15.982 -18.726   0.180  1.00  0.00     0.051 C 
BRANCH   9  12
ATOM     10  C1  MOL A   1      13.395 -21.619   0.513  1.00  0.00     0.006 C 
ATOM     11  N2  MOL A   1      14.044 -20.320   0.616  1.00  0.00    -0.359 N 
ATOM     12  C3  MOL A   1      15.344 -20.080   0.066  1.00  0.00     0.222 C 
ATOM     13  O4  MOL A   1      15.963 -21.008  -0.522  1.00  0.00    -0.275 OA
ENDBRANCH   9  12
ENDBRANCH   8   9
BRANCH   8  14
ATOM     14  N7  MOL A   1      16.459 -18.025  -2.142  1.00  0.00    -0.346 N 
ATOM     15  C8  MOL A   1      16.069 -18.803  -3.275  1.00  0.00     0.258 C 
ATOM     16  O9  MOL A   1      14.933 -19.347  -3.312  1.00  0.00    -0.271 OA
BRANCH  15  17
ATOM     17 C10  MOL A   1      17.000 -18.968  -4.439  1.00  0.00     0.167 C 
BRANCH  17  18
ATOM     18 O11  MOL A   1      16.264 -19.125  -5.649  1.00  0.00    -0.480 OA
BRANCH  18  19
ATOM     19 C12  MOL A   1      16.553 -18.379  -6.795  1.00  0.00     0.166 A 
ATOM     20 C13  MOL A   1      15.867 -17.175  -7.075  1.00  0.00     0.012 A 
ATOM     21 C21  MOL A   1      16.244 -16.417  -8.196  1.00  0.00    -0.054 A 
ATOM     22 C22  MOL A   1      17.250 -16.868  -9.051  1.00  0.00    -0.058 A 
ATOM     23 C23  MOL A   1      17.891 -18.082  -8.800  1.00  0.00    -0.016 A 
ATOM     24 C24  MOL A   1      17.544 -18.849  -7.672  1.00  0.00     0.161 A 
BRANCH  20  25
ATOM     25 C14  MOL A   1      14.736 -16.680  -6.202  1.00  0.00     0.028 C 
BRANCH  25  26
ATOM     26 N15  MOL A   1      15.024 -15.319  -5.706  1.00  0.00    -0.287 NA
ATOM     27 C16  MOL A   1      15.118 -15.286  -4.237  1.00  0.00     0.064 C 
ATOM     28 C17  MOL A   1      13.879 -14.423  -4.103  1.00  0.00     0.272 C 
ATOM     29 F18  MOL A   1      14.136 -13.152  -3.620  1.00  0.00    -0.204 F 
ATOM     30 F19  MOL A   1      12.821 -15.059  -3.474  1.00  0.00    -0.204 F 
ATOM     31 C20  MOL A   1      13.808 -14.491  -5.616  1.00  0.00     0.064 C 
ENDBRANCH  25  26
ENDBRANCH  20  25
BRANCH  24  32
ATOM     32 O25  MOL A   1      18.163 -20.074  -7.385  1.00  0.00    -0.493 OA
ATOM     33 C26  MOL A   1      19.568 -20.252  -7.240  1.00  0.00     0.078 C 
ENDBRANCH  24  32
ENDBRANCH  18  19
ENDBRANCH  17  18
ENDBRANCH  15  17
ENDBRANCH   8  14
ENDBRANCH   1   8
TORSDOF 10
ENDMDL
MODEL 265
REMARK VINA RESULT:    -7.218      6.762     11.450
REMARK INTER + INTRA:         -12.487
REMARK INTER:                 -11.186
REMARK INTRA:                  -1.301
REMARK UNBOUND:                -1.048
REMARK  10 active torsions:
REMARK  status: ('A' for Active; 'I' for Inactive)
REMARK   1   A    between atoms:  C27_1   and   C6_8  
REMARK   2   A    between atoms:  C6_8    and   C5_9  
REMARK   3   A    between atoms:  C5_9    and   C3_12 
REMARK   4   A    between atoms:  C6_8    and   N7_14 
REMARK   5   A    between atoms:  C8_15   and  C10_17 
REMARK   6   A    between atoms: C10_17   and  O11_18 
REMARK   7   A    between atoms: O11_18   and  C12_19 
REMARK   8   A    between atoms: C13_20   and  C14_25 
REMARK   9   A    between atoms: C14_25   and  N15_26 
REMARK   10  A    between atoms: C24_24   and  O25_32 
ROOT
ATOM      1 C27  MOL A   1       9.779 -17.956  -8.487  1.00  0.00    -0.024 A 
ATOM      2 C28  MOL A   1       9.247 -16.671  -8.281  1.00  0.00    -0.057 A 
ATOM      3 C29  MOL A   1       7.862 -16.470  -8.276  1.00  0.00    -0.061 A 
ATOM      4 C30  MOL A   1       6.997 -17.549  -8.477  1.00  0.00    -0.048 A 
ATOM      5 C31  MOL A   1       7.513 -18.834  -8.680  1.00  0.00     0.018 A 
ATOM      6 Br32 MOL A   1       6.327 -20.314  -8.932  1.00  0.00    -0.051 Br
ATOM      7 C33  MOL A   1       8.897 -19.037  -8.690  1.00  0.00    -0.043 A 
ENDROOT
BRANCH   1   8
ATOM      8  C6  MOL A   1      11.278 -18.152  -8.563  1.00  0.00     0.063 C 
BRANCH   8   9
ATOM      9  C5  MOL A   1      11.613 -19.654  -8.579  1.00  0.00     0.051 C 
BRANCH   9  12
ATOM     10  C1  MOL A   1      13.805 -20.802  -5.571  1.00  0.00     0.006 C 
ATOM     11  N2  MOL A   1      13.389 -20.337  -6.886  1.00  0.00    -0.359 N 
ATOM     12  C3  MOL A   1      12.010 -20.144  -7.217  1.00  0.00     0.222 C 
ATOM     13  O4  MOL A   1      11.115 -20.383  -6.360  1.00  0.00    -0.275 OA
ENDBRANCH   9  12
ENDBRANCH   8   9
BRANCH   8  14
ATOM     14  N7  MOL A   1      11.935 -17.488  -7.432  1.00  0.00    -0.346 N 
ATOM     15  C8  MOL A   1      13.203 -16.841  -7.552  1.00  0.00     0.258 C 
ATOM     16  O9  MOL A   1      13.810 -16.832  -8.656  1.00  0.00    -0.271 OA
BRANCH  15  17
ATOM     17 C10  MOL A   1      13.819 -16.154  -6.370  1.00  0.00     0.167 C 
BRANCH  17  18
ATOM     18 O11  MOL A   1      14.565 -17.083  -5.586  1.00  0.00    -0.480 OA
BRANCH  18  19
ATOM     19 C12  MOL A   1      15.945 -16.959  -5.403  1.00  0.00     0.166 A 
ATOM     20 C13  MOL A   1      16.477 -16.077  -4.435  1.00  0.00     0.012 A 
ATOM     21 C21  MOL A   1      17.867 -16.043  -4.231  1.00  0.00    -0.054 A 
ATOM     22 C22  MOL A   1      18.716 -16.832  -5.006  1.00  0.00    -0.058 A 
ATOM     23 C23  MOL A   1      18.192 -17.664  -5.995  1.00  0.00    -0.016 A 
ATOM     24 C24  MOL A   1      16.802 -17.731  -6.205  1.00  0.00     0.161 A 
BRANCH  20  25
ATOM     25 C14  MOL A   1      15.592 -15.167  -3.613  1.00  0.00     0.028 C 
BRANCH  25  26
ATOM     26 N15  MOL A   1      15.514 -15.646  -2.218  1.00  0.00    -0.287 NA
ATOM     27 C16  MOL A   1      14.165 -15.461  -1.656  1.00  0.00     0.064 C 
ATOM     28 C17  MOL A   1      14.647 -14.439  -0.645  1.00  0.00     0.272 C 
ATOM     29 F18  MOL A   1      14.559 -14.871   0.667  1.00  0.00    -0.204 F 
ATOM     30 F19  MOL A   1      14.140 -13.167  -0.852  1.00  0.00    -0.204 F 
ATOM     31 C20  MOL A   1      16.018 -14.648  -1.259  1.00  0.00     0.064 C 
ENDBRANCH  25  26
ENDBRANCH  20  25
BRANCH  24  32
ATOM     32 O25  MOL A   1      16.235 -18.553  -7.189  1.00  0.00    -0.493 OA
ATOM     33 C26  MOL A   1      16.952 -19.534  -7.930  1.00  0.00     0.078 C 
ENDBRANCH  24  32
ENDBRANCH  18  19
ENDBRANCH  17  18
ENDBRANCH  15  17
ENDBRANCH   8  14
ENDBRANCH   1   8
TORSDOF 10
ENDMDL
MODEL 266
REMARK VINA RESULT:    -7.217      6.108     10.785
REMARK INTER + INTRA:         -12.484
REMARK INTER:                 -11.302
REMARK INTRA:                  -1.182
REMARK UNBOUND:                -1.048
REMARK  10 active torsions:
REMARK  status: ('A' for Active; 'I' for Inactive)
REMARK   1   A    between atoms:  C27_1   and   C6_8  
REMARK   2   A    between atoms:  C6_8    and   C5_9  
REMARK   3   A    between atoms:  C5_9    and   C3_12 
REMARK   4   A    between atoms:  C6_8    and   N7_14 
REMARK   5   A    between atoms:  C8_15   and  C10_17 
REMARK   6   A    between atoms: C10_17   and  O11_18 
REMARK   7   A    between atoms: O11_18   and  C12_19 
REMARK   8   A    between atoms: C13_20   and  C14_25 
REMARK   9   A    between atoms: C14_25   and  N15_26 
REMARK   10  A    between atoms: C24_24   and  O25_32 
ROOT
ATOM      1 C27  MOL A   1       9.032 -18.108  -9.142  1.00  0.00    -0.024 A 
ATOM      2 C28  MOL A   1       8.464 -17.168  -8.262  1.00  0.00    -0.057 A 
ATOM      3 C29  MOL A   1       7.487 -16.275  -8.715  1.00  0.00    -0.061 A 
ATOM      4 C30  MOL A   1       7.069 -16.310 -10.048  1.00  0.00    -0.048 A 
ATOM      5 C31  MOL A   1       7.624 -17.242 -10.933  1.00  0.00     0.018 A 
ATOM      6 Br32 MOL A   1       7.035 -17.304 -12.752  1.00  0.00    -0.051 Br
ATOM      7 C33  MOL A   1       8.604 -18.133 -10.485  1.00  0.00    -0.043 A 
ENDROOT
BRANCH   1   8
ATOM      8  C6  MOL A   1      10.139 -19.022  -8.662  1.00  0.00     0.063 C 
BRANCH   8   9
ATOM      9  C5  MOL A   1       9.540 -20.245  -7.944  1.00  0.00     0.051 C 
BRANCH   9  12
ATOM     10  C1  MOL A   1       9.069 -22.660 -10.964  1.00  0.00     0.006 C 
ATOM     11  N2  MOL A   1       9.656 -21.728 -10.011  1.00  0.00    -0.359 N 
ATOM     12  C3  MOL A   1       8.903 -21.196  -8.916  1.00  0.00     0.222 C 
ATOM     13  O4  MOL A   1       7.696 -21.526  -8.759  1.00  0.00    -0.275 OA
ENDBRANCH   9  12
ENDBRANCH   8   9
BRANCH   8  14
ATOM     14  N7  MOL A   1      11.048 -18.294  -7.770  1.00  0.00    -0.346 N 
ATOM     15  C8  MOL A   1      12.288 -17.743  -8.218  1.00  0.00     0.258 C 
ATOM     16  O9  MOL A   1      12.647 -17.880  -9.418  1.00  0.00    -0.271 OA
BRANCH  15  17
ATOM     17 C10  MOL A   1      13.168 -16.985  -7.270  1.00  0.00     0.167 C 
BRANCH  17  18
ATOM     18 O11  MOL A   1      13.974 -17.883  -6.511  1.00  0.00    -0.480 OA
BRANCH  18  19
ATOM     19 C12  MOL A   1      15.357 -17.975  -6.695  1.00  0.00     0.166 A 
ATOM     20 C13  MOL A   1      16.222 -16.944  -6.261  1.00  0.00     0.012 A 
ATOM     21 C21  MOL A   1      17.610 -17.113  -6.395  1.00  0.00    -0.054 A 
ATOM     22 C22  MOL A   1      18.129 -18.262  -6.993  1.00  0.00    -0.058 A 
ATOM     23 C23  MOL A   1      17.271 -19.255  -7.466  1.00  0.00    -0.016 A 
ATOM     24 C24  MOL A   1      15.878 -19.117  -7.325  1.00  0.00     0.161 A 
BRANCH  20  25
ATOM     25 C14  MOL A   1      15.693 -15.662  -5.657  1.00  0.00     0.028 C 
BRANCH  25  26
ATOM     26 N15  MOL A   1      15.223 -15.898  -4.277  1.00  0.00    -0.287 NA
ATOM     27 C16  MOL A   1      13.902 -15.291  -4.043  1.00  0.00     0.064 C 
ATOM     28 C17  MOL A   1      14.455 -14.293  -3.045  1.00  0.00     0.272 C 
ATOM     29 F18  MOL A   1      14.004 -14.493  -1.752  1.00  0.00    -0.204 F 
ATOM     30 F19  MOL A   1      14.376 -12.977  -3.469  1.00  0.00    -0.204 F 
ATOM     31 C20  MOL A   1      15.800 -14.936  -3.322  1.00  0.00     0.064 C 
ENDBRANCH  25  26
ENDBRANCH  20  25
BRANCH  24  32
ATOM     32 O25  MOL A   1      14.982 -20.091  -7.788  1.00  0.00    -0.493 OA
ATOM     33 C26  MOL A   1      15.316 -21.117  -8.716  1.00  0.00     0.078 C 
ENDBRANCH  24  32
ENDBRANCH  18  19
ENDBRANCH  17  18
ENDBRANCH  15  17
ENDBRANCH   8  14
ENDBRANCH   1   8
TORSDOF 10
ENDMDL
MODEL 267
REMARK VINA RESULT:    -7.214      5.669      9.871
REMARK INTER + INTRA:         -12.480
REMARK INTER:                 -11.067
REMARK INTRA:                  -1.413
REMARK UNBOUND:                -1.048
REMARK  10 active torsions:
REMARK  status: ('A' for Active; 'I' for Inactive)
REMARK   1   A    between atoms:  C27_1   and   C6_8  
REMARK   2   A    between atoms:  C6_8    and   C5_9  
REMARK   3   A    between atoms:  C5_9    and   C3_12 
REMARK   4   A    between atoms:  C6_8    and   N7_14 
REMARK   5   A    between atoms:  C8_15   and  C10_17 
REMARK   6   A    between atoms: C10_17   and  O11_18 
REMARK   7   A    between atoms: O11_18   and  C12_19 
REMARK   8   A    between atoms: C13_20   and  C14_25 
REMARK   9   A    between atoms: C14_25   and  N15_26 
REMARK   10  A    between atoms: C24_24   and  O25_32 
ROOT
ATOM      1 C27  MOL A   1      16.677 -17.645  -6.437  1.00  0.00    -0.024 A 
ATOM      2 C28  MOL A   1      17.380 -18.483  -5.552  1.00  0.00    -0.057 A 
ATOM      3 C29  MOL A   1      18.437 -19.274  -6.017  1.00  0.00    -0.061 A 
ATOM      4 C30  MOL A   1      18.801 -19.236  -7.365  1.00  0.00    -0.048 A 
ATOM      5 C31  MOL A   1      18.112 -18.404  -8.255  1.00  0.00     0.018 A 
ATOM      6 Br32 MOL A   1      18.625 -18.337 -10.097  1.00  0.00    -0.051 Br
ATOM      7 C33  MOL A   1      17.051 -17.617  -7.795  1.00  0.00    -0.043 A 
ENDROOT
BRANCH   1   8
ATOM      8  C6  MOL A   1      15.489 -16.849  -5.941  1.00  0.00     0.063 C 
BRANCH   8   9
ATOM      9  C5  MOL A   1      15.415 -16.912  -4.405  1.00  0.00     0.051 C 
BRANCH   9  12
ATOM     10  C1  MOL A   1      14.011 -13.744  -2.625  1.00  0.00     0.006 C 
ATOM     11  N2  MOL A   1      14.115 -15.066  -3.227  1.00  0.00    -0.359 N 
ATOM     12  C3  MOL A   1      15.338 -15.540  -3.801  1.00  0.00     0.222 C 
ATOM     13  O4  MOL A   1      16.363 -14.805  -3.799  1.00  0.00    -0.275 OA
ENDBRANCH   9  12
ENDBRANCH   8   9
BRANCH   8  14
ATOM     14  N7  MOL A   1      14.250 -17.358  -6.539  1.00  0.00    -0.346 N 
ATOM     15  C8  MOL A   1      13.155 -16.507  -6.884  1.00  0.00     0.258 C 
ATOM     16  O9  MOL A   1      13.222 -15.268  -6.668  1.00  0.00    -0.271 OA
BRANCH  15  17
ATOM     17 C10  MOL A   1      11.921 -17.077  -7.517  1.00  0.00     0.167 C 
BRANCH  17  18
ATOM     18 O11  MOL A   1      12.269 -18.037  -8.512  1.00  0.00    -0.480 OA
BRANCH  18  19
ATOM     19 C12  MOL A   1      11.658 -19.292  -8.577  1.00  0.00     0.166 A 
ATOM     20 C13  MOL A   1      10.444 -19.478  -9.278  1.00  0.00     0.012 A 
ATOM     21 C21  MOL A   1       9.906 -20.771  -9.385  1.00  0.00    -0.054 A 
ATOM     22 C22  MOL A   1      10.533 -21.852  -8.768  1.00  0.00    -0.058 A 
ATOM     23 C23  MOL A   1      11.704 -21.658  -8.034  1.00  0.00    -0.016 A 
ATOM     24 C24  MOL A   1      12.273 -20.375  -7.930  1.00  0.00     0.161 A 
BRANCH  20  25
ATOM     25 C14  MOL A   1       9.707 -18.321  -9.916  1.00  0.00     0.028 C 
BRANCH  25  26
ATOM     26 N15  MOL A   1       8.479 -18.010  -9.155  1.00  0.00    -0.287 NA
ATOM     27 C16  MOL A   1       7.286 -18.034 -10.019  1.00  0.00     0.064 C 
ATOM     28 C17  MOL A   1       7.045 -16.547  -9.853  1.00  0.00     0.272 C 
ATOM     29 F18  MOL A   1       5.886 -16.245  -9.160  1.00  0.00    -0.204 F 
ATOM     30 F19  MOL A   1       7.204 -15.823 -11.024  1.00  0.00    -0.204 F 
ATOM     31 C20  MOL A   1       8.285 -16.560  -8.981  1.00  0.00     0.064 C 
ENDBRANCH  25  26
ENDBRANCH  20  25
BRANCH  24  32
ATOM     32 O25  MOL A   1      13.448 -20.138  -7.202  1.00  0.00    -0.493 OA
ATOM     33 C26  MOL A   1      14.506 -21.078  -7.050  1.00  0.00     0.078 C 
ENDBRANCH  24  32
ENDBRANCH  18  19
ENDBRANCH  17  18
ENDBRANCH  15  17
ENDBRANCH   8  14
ENDBRANCH   1   8
TORSDOF 10
ENDMDL
MODEL 268
REMARK VINA RESULT:    -7.214      6.850     10.817
REMARK INTER + INTRA:         -12.479
REMARK INTER:                 -10.538
REMARK INTRA:                  -1.942
REMARK UNBOUND:                -1.048
REMARK  10 active torsions:
REMARK  status: ('A' for Active; 'I' for Inactive)
REMARK   1   A    between atoms:  C27_1   and   C6_8  
REMARK   2   A    between atoms:  C6_8    and   C5_9  
REMARK   3   A    between atoms:  C5_9    and   C3_12 
REMARK   4   A    between atoms:  C6_8    and   N7_14 
REMARK   5   A    between atoms:  C8_15   and  C10_17 
REMARK   6   A    between atoms: C10_17   and  O11_18 
REMARK   7   A    between atoms: O11_18   and  C12_19 
REMARK   8   A    between atoms: C13_20   and  C14_25 
REMARK   9   A    between atoms: C14_25   and  N15_26 
REMARK   10  A    between atoms: C24_24   and  O25_32 
ROOT
ATOM      1 C27  MOL A   1      15.361 -16.213  -4.826  1.00  0.00    -0.024 A 
ATOM      2 C28  MOL A   1      16.667 -15.738  -5.047  1.00  0.00    -0.057 A 
ATOM      3 C29  MOL A   1      17.767 -16.424  -4.522  1.00  0.00    -0.061 A 
ATOM      4 C30  MOL A   1      17.576 -17.588  -3.773  1.00  0.00    -0.048 A 
ATOM      5 C31  MOL A   1      16.282 -18.073  -3.549  1.00  0.00     0.018 A 
ATOM      6 Br32 MOL A   1      16.023 -19.679  -2.541  1.00  0.00    -0.051 Br
ATOM      7 C33  MOL A   1      15.179 -17.387  -4.067  1.00  0.00    -0.043 A 
ENDROOT
BRANCH   1   8
ATOM      8  C6  MOL A   1      14.173 -15.426  -5.335  1.00  0.00     0.063 C 
BRANCH   8   9
ATOM      9  C5  MOL A   1      13.252 -15.044  -4.162  1.00  0.00     0.051 C 
BRANCH   9  12
ATOM     10  C1  MOL A   1      14.892 -13.639  -0.920  1.00  0.00     0.006 C 
ATOM     11  N2  MOL A   1      14.222 -14.519  -1.866  1.00  0.00    -0.359 N 
ATOM     12  C3  MOL A   1      13.936 -14.108  -3.207  1.00  0.00     0.222 C 
ATOM     13  O4  MOL A   1      14.260 -12.954  -3.598  1.00  0.00    -0.275 OA
ENDBRANCH   9  12
ENDBRANCH   8   9
BRANCH   8  14
ATOM     14  N7  MOL A   1      13.437 -16.206  -6.336  1.00  0.00    -0.346 N 
ATOM     15  C8  MOL A   1      13.842 -16.276  -7.705  1.00  0.00     0.258 C 
ATOM     16  O9  MOL A   1      14.859 -15.647  -8.100  1.00  0.00    -0.271 OA
BRANCH  15  17
ATOM     17 C10  MOL A   1      13.068 -17.110  -8.682  1.00  0.00     0.167 C 
BRANCH  17  18
ATOM     18 O11  MOL A   1      13.635 -18.415  -8.783  1.00  0.00    -0.480 OA
BRANCH  18  19
ATOM     19 C12  MOL A   1      13.401 -19.401  -7.820  1.00  0.00     0.166 A 
ATOM     20 C13  MOL A   1      12.167 -20.087  -7.761  1.00  0.00     0.012 A 
ATOM     21 C21  MOL A   1      12.004 -21.125  -6.828  1.00  0.00    -0.054 A 
ATOM     22 C22  MOL A   1      13.029 -21.445  -5.939  1.00  0.00    -0.058 A 
ATOM     23 C23  MOL A   1      14.229 -20.733  -5.966  1.00  0.00    -0.016 A 
ATOM     24 C24  MOL A   1      14.422 -19.702  -6.904  1.00  0.00     0.161 A 
BRANCH  20  25
ATOM     25 C14  MOL A   1      11.014 -19.732  -8.673  1.00  0.00     0.028 C 
BRANCH  25  26
ATOM     26 N15  MOL A   1       9.909 -19.131  -7.899  1.00  0.00    -0.287 NA
ATOM     27 C16  MOL A   1       8.623 -19.787  -8.189  1.00  0.00     0.064 C 
ATOM     28 C17  MOL A   1       8.049 -18.542  -8.834  1.00  0.00     0.272 C 
ATOM     29 F18  MOL A   1       6.999 -17.983  -8.126  1.00  0.00    -0.204 F 
ATOM     30 F19  MOL A   1       7.801 -18.680 -10.190  1.00  0.00    -0.204 F 
ATOM     31 C20  MOL A   1       9.391 -17.905  -8.530  1.00  0.00     0.064 C 
ENDBRANCH  25  26
ENDBRANCH  20  25
BRANCH  24  32
ATOM     32 O25  MOL A   1      15.612 -18.962  -6.963  1.00  0.00    -0.493 OA
ATOM     33 C26  MOL A   1      16.910 -19.533  -7.090  1.00  0.00     0.078 C 
ENDBRANCH  24  32
ENDBRANCH  18  19
ENDBRANCH  17  18
ENDBRANCH  15  17
ENDBRANCH   8  14
ENDBRANCH   1   8
TORSDOF 10
ENDMDL
MODEL 269
REMARK VINA RESULT:    -7.212      8.444     11.688
REMARK INTER + INTRA:         -12.477
REMARK INTER:                 -10.508
REMARK INTRA:                  -1.969
REMARK UNBOUND:                -1.048
REMARK  10 active torsions:
REMARK  status: ('A' for Active; 'I' for Inactive)
REMARK   1   A    between atoms:  C27_1   and   C6_8  
REMARK   2   A    between atoms:  C6_8    and   C5_9  
REMARK   3   A    between atoms:  C5_9    and   C3_12 
REMARK   4   A    between atoms:  C6_8    and   N7_14 
REMARK   5   A    between atoms:  C8_15   and  C10_17 
REMARK   6   A    between atoms: C10_17   and  O11_18 
REMARK   7   A    between atoms: O11_18   and  C12_19 
REMARK   8   A    between atoms: C13_20   and  C14_25 
REMARK   9   A    between atoms: C14_25   and  N15_26 
REMARK   10  A    between atoms: C24_24   and  O25_32 
ROOT
ATOM      1 C27  MOL A   1      17.084 -18.925  -4.427  1.00  0.00    -0.024 A 
ATOM      2 C28  MOL A   1      16.219 -19.541  -3.503  1.00  0.00    -0.057 A 
ATOM      3 C29  MOL A   1      15.846 -18.876  -2.331  1.00  0.00    -0.061 A 
ATOM      4 C30  MOL A   1      16.332 -17.592  -2.068  1.00  0.00    -0.048 A 
ATOM      5 C31  MOL A   1      17.190 -16.966  -2.980  1.00  0.00     0.018 A 
ATOM      6 Br32 MOL A   1      17.837 -15.200  -2.630  1.00  0.00    -0.051 Br
ATOM      7 C33  MOL A   1      17.569 -17.631  -4.151  1.00  0.00    -0.043 A 
ENDROOT
BRANCH   1   8
ATOM      8  C6  MOL A   1      17.540 -19.680  -5.657  1.00  0.00     0.063 C 
BRANCH   8   9
ATOM      9  C5  MOL A   1      18.737 -18.959  -6.304  1.00  0.00     0.051 C 
BRANCH   9  12
ATOM     10  C1  MOL A   1      19.978 -20.001  -9.846  1.00  0.00     0.006 C 
ATOM     11  N2  MOL A   1      19.398 -19.242  -8.747  1.00  0.00    -0.359 N 
ATOM     12  C3  MOL A   1      19.331 -19.771  -7.418  1.00  0.00     0.222 C 
ATOM     13  O4  MOL A   1      19.775 -20.926  -7.174  1.00  0.00    -0.275 OA
ENDBRANCH   9  12
ENDBRANCH   8   9
BRANCH   8  14
ATOM     14  N7  MOL A   1      16.435 -19.808  -6.613  1.00  0.00    -0.346 N 
ATOM     15  C8  MOL A   1      15.852 -21.068  -6.951  1.00  0.00     0.258 C 
ATOM     16  O9  MOL A   1      16.289 -22.129  -6.432  1.00  0.00    -0.271 OA
BRANCH  15  17
ATOM     17 C10  MOL A   1      14.707 -21.140  -7.916  1.00  0.00     0.167 C 
BRANCH  17  18
ATOM     18 O11  MOL A   1      13.585 -20.418  -7.413  1.00  0.00    -0.480 OA
BRANCH  18  19
ATOM     19 C12  MOL A   1      12.620 -19.865  -8.258  1.00  0.00     0.166 A 
ATOM     20 C13  MOL A   1      12.814 -18.602  -8.863  1.00  0.00     0.012 A 
ATOM     21 C21  MOL A   1      11.854 -18.120  -9.768  1.00  0.00    -0.054 A 
ATOM     22 C22  MOL A   1      10.698 -18.854 -10.032  1.00  0.00    -0.058 A 
ATOM     23 C23  MOL A   1      10.484 -20.077  -9.395  1.00  0.00    -0.016 A 
ATOM     24 C24  MOL A   1      11.442 -20.590  -8.500  1.00  0.00     0.161 A 
BRANCH  20  25
ATOM     25 C14  MOL A   1      14.029 -17.752  -8.561  1.00  0.00     0.028 C 
BRANCH  25  26
ATOM     26 N15  MOL A   1      13.629 -16.356  -8.294  1.00  0.00    -0.287 NA
ATOM     27 C16  MOL A   1      14.782 -15.527  -7.903  1.00  0.00     0.064 C 
ATOM     28 C17  MOL A   1      14.247 -15.315  -6.501  1.00  0.00     0.272 C 
ATOM     29 F18  MOL A   1      13.888 -14.005  -6.235  1.00  0.00    -0.204 F 
ATOM     30 F19  MOL A   1      15.026 -15.895  -5.513  1.00  0.00    -0.204 F 
ATOM     31 C20  MOL A   1      13.083 -16.183  -6.937  1.00  0.00     0.064 C 
ENDBRANCH  25  26
ENDBRANCH  20  25
BRANCH  24  32
ATOM     32 O25  MOL A   1      11.264 -21.814  -7.840  1.00  0.00    -0.493 OA
ATOM     33 C26  MOL A   1      11.603 -23.083  -8.390  1.00  0.00     0.078 C 
ENDBRANCH  24  32
ENDBRANCH  18  19
ENDBRANCH  17  18
ENDBRANCH  15  17
ENDBRANCH   8  14
ENDBRANCH   1   8
TORSDOF 10
ENDMDL
MODEL 270
REMARK VINA RESULT:    -7.212      5.003      9.413
REMARK INTER + INTRA:         -12.476
REMARK INTER:                 -12.018
REMARK INTRA:                  -0.459
REMARK UNBOUND:                -1.048
REMARK  10 active torsions:
REMARK  status: ('A' for Active; 'I' for Inactive)
REMARK   1   A    between atoms:  C27_1   and   C6_8  
REMARK   2   A    between atoms:  C6_8    and   C5_9  
REMARK   3   A    between atoms:  C5_9    and   C3_12 
REMARK   4   A    between atoms:  C6_8    and   N7_14 
REMARK   5   A    between atoms:  C8_15   and  C10_17 
REMARK   6   A    between atoms: C10_17   and  O11_18 
REMARK   7   A    between atoms: O11_18   and  C12_19 
REMARK   8   A    between atoms: C13_20   and  C14_25 
REMARK   9   A    between atoms: C14_25   and  N15_26 
REMARK   10  A    between atoms: C24_24   and  O25_32 
ROOT
ATOM      1 C27  MOL A   1       6.917 -17.170 -10.104  1.00  0.00    -0.024 A 
ATOM      2 C28  MOL A   1       7.336 -17.950 -11.197  1.00  0.00    -0.057 A 
ATOM      3 C29  MOL A   1       7.085 -17.525 -12.507  1.00  0.00    -0.061 A 
ATOM      4 C30  MOL A   1       6.414 -16.321 -12.737  1.00  0.00    -0.048 A 
ATOM      5 C31  MOL A   1       5.995 -15.535 -11.659  1.00  0.00     0.018 A 
ATOM      6 Br32 MOL A   1       5.096 -13.876 -11.976  1.00  0.00    -0.051 Br
ATOM      7 C33  MOL A   1       6.239 -15.958 -10.348  1.00  0.00    -0.043 A 
ENDROOT
BRANCH   1   8
ATOM      8  C6  MOL A   1       7.128 -17.671  -8.692  1.00  0.00     0.063 C 
BRANCH   8   9
ATOM      9  C5  MOL A   1       6.670 -16.604  -7.680  1.00  0.00     0.051 C 
BRANCH   9  12
ATOM     10  C1  MOL A   1       2.947 -15.686  -6.995  1.00  0.00     0.006 C 
ATOM     11  N2  MOL A   1       4.368 -15.585  -7.295  1.00  0.00    -0.359 N 
ATOM     12  C3  MOL A   1       5.210 -16.741  -7.358  1.00  0.00     0.222 C 
ATOM     13  O4  MOL A   1       4.728 -17.887  -7.146  1.00  0.00    -0.275 OA
ENDBRANCH   9  12
ENDBRANCH   8   9
BRANCH   8  14
ATOM     14  N7  MOL A   1       8.538 -18.013  -8.479  1.00  0.00    -0.346 N 
ATOM     15  C8  MOL A   1       9.539 -17.026  -8.224  1.00  0.00     0.258 C 
ATOM     16  O9  MOL A   1       9.232 -15.805  -8.185  1.00  0.00    -0.271 OA
BRANCH  15  17
ATOM     17 C10  MOL A   1      10.963 -17.432  -7.988  1.00  0.00     0.167 C 
BRANCH  17  18
ATOM     18 O11  MOL A   1      11.019 -18.607  -7.182  1.00  0.00    -0.480 OA
BRANCH  18  19
ATOM     19 C12  MOL A   1      12.013 -19.574  -7.350  1.00  0.00     0.166 A 
ATOM     20 C13  MOL A   1      11.701 -20.869  -7.826  1.00  0.00     0.012 A 
ATOM     21 C21  MOL A   1      12.743 -21.784  -8.054  1.00  0.00    -0.054 A 
ATOM     22 C22  MOL A   1      14.064 -21.439  -7.770  1.00  0.00    -0.058 A 
ATOM     23 C23  MOL A   1      14.364 -20.178  -7.253  1.00  0.00    -0.016 A 
ATOM     24 C24  MOL A   1      13.340 -19.238  -7.035  1.00  0.00     0.161 A 
BRANCH  20  25
ATOM     25 C14  MOL A   1      10.276 -21.297  -8.094  1.00  0.00     0.028 C 
BRANCH  25  26
ATOM     26 N15  MOL A   1      10.054 -21.470  -9.544  1.00  0.00    -0.287 NA
ATOM     27 C16  MOL A   1       8.699 -21.049  -9.939  1.00  0.00     0.064 C 
ATOM     28 C17  MOL A   1       8.291 -22.459 -10.317  1.00  0.00     0.272 C 
ATOM     29 F18  MOL A   1       8.060 -22.626 -11.672  1.00  0.00    -0.204 F 
ATOM     30 F19  MOL A   1       7.298 -22.988  -9.509  1.00  0.00    -0.204 F 
ATOM     31 C20  MOL A   1       9.690 -22.855  -9.889  1.00  0.00     0.064 C 
ENDBRANCH  25  26
ENDBRANCH  20  25
BRANCH  24  32
ATOM     32 O25  MOL A   1      13.599 -17.961  -6.516  1.00  0.00    -0.493 OA
ATOM     33 C26  MOL A   1      14.739 -17.174  -6.844  1.00  0.00     0.078 C 
ENDBRANCH  24  32
ENDBRANCH  18  19
ENDBRANCH  17  18
ENDBRANCH  15  17
ENDBRANCH   8  14
ENDBRANCH   1   8
TORSDOF 10
ENDMDL
MODEL 271
REMARK VINA RESULT:    -7.209      7.234     10.026
REMARK INTER + INTRA:         -12.472
REMARK INTER:                 -11.610
REMARK INTRA:                  -0.862
REMARK UNBOUND:                -1.048
REMARK  10 active torsions:
REMARK  status: ('A' for Active; 'I' for Inactive)
REMARK   1   A    between atoms:  C27_1   and   C6_8  
REMARK   2   A    between atoms:  C6_8    and   C5_9  
REMARK   3   A    between atoms:  C5_9    and   C3_12 
REMARK   4   A    between atoms:  C6_8    and   N7_14 
REMARK   5   A    between atoms:  C8_15   and  C10_17 
REMARK   6   A    between atoms: C10_17   and  O11_18 
REMARK   7   A    between atoms: O11_18   and  C12_19 
REMARK   8   A    between atoms: C13_20   and  C14_25 
REMARK   9   A    between atoms: C14_25   and  N15_26 
REMARK   10  A    between atoms: C24_24   and  O25_32 
ROOT
ATOM      1 C27  MOL A   1       6.047 -21.352  -9.128  1.00  0.00    -0.024 A 
ATOM      2 C28  MOL A   1       5.885 -20.541  -7.990  1.00  0.00    -0.057 A 
ATOM      3 C29  MOL A   1       4.609 -20.292  -7.474  1.00  0.00    -0.061 A 
ATOM      4 C30  MOL A   1       3.483 -20.848  -8.088  1.00  0.00    -0.048 A 
ATOM      5 C31  MOL A   1       3.631 -21.659  -9.219  1.00  0.00     0.018 A 
ATOM      6 Br32 MOL A   1       2.091 -22.438 -10.046  1.00  0.00    -0.051 Br
ATOM      7 C33  MOL A   1       4.905 -21.906  -9.740  1.00  0.00    -0.043 A 
ENDROOT
BRANCH   1   8
ATOM      8  C6  MOL A   1       7.424 -21.557  -9.722  1.00  0.00     0.063 C 
BRANCH   8   9
ATOM      9  C5  MOL A   1       7.560 -22.996 -10.253  1.00  0.00     0.051 C 
BRANCH   9  12
ATOM     10  C1  MOL A   1      11.039 -24.662  -9.715  1.00  0.00     0.006 C 
ATOM     11  N2  MOL A   1       9.648 -24.268  -9.542  1.00  0.00    -0.359 N 
ATOM     12  C3  MOL A   1       8.998 -23.375 -10.453  1.00  0.00     0.222 C 
ATOM     13  O4  MOL A   1       9.632 -22.902 -11.435  1.00  0.00    -0.275 OA
ENDBRANCH   9  12
ENDBRANCH   8   9
BRANCH   8  14
ATOM     14  N7  MOL A   1       8.457 -21.277  -8.719  1.00  0.00    -0.346 N 
ATOM     15  C8  MOL A   1       9.531 -20.365  -8.955  1.00  0.00     0.258 C 
ATOM     16  O9  MOL A   1       9.627 -19.769 -10.061  1.00  0.00    -0.271 OA
BRANCH  15  17
ATOM     17 C10  MOL A   1      10.546 -20.095  -7.885  1.00  0.00     0.167 C 
BRANCH  17  18
ATOM     18 O11  MOL A   1      11.624 -19.319  -8.404  1.00  0.00    -0.480 OA
BRANCH  18  19
ATOM     19 C12  MOL A   1      12.157 -18.231  -7.708  1.00  0.00     0.166 A 
ATOM     20 C13  MOL A   1      13.472 -18.268  -7.191  1.00  0.00     0.012 A 
ATOM     21 C21  MOL A   1      13.995 -17.123  -6.567  1.00  0.00    -0.054 A 
ATOM     22 C22  MOL A   1      13.211 -15.979  -6.414  1.00  0.00    -0.058 A 
ATOM     23 C23  MOL A   1      11.896 -15.963  -6.880  1.00  0.00    -0.016 A 
ATOM     24 C24  MOL A   1      11.357 -17.091  -7.526  1.00  0.00     0.161 A 
BRANCH  20  25
ATOM     25 C14  MOL A   1      14.333 -19.507  -7.291  1.00  0.00     0.028 C 
BRANCH  25  26
ATOM     26 N15  MOL A   1      13.627 -20.673  -6.721  1.00  0.00    -0.287 NA
ATOM     27 C16  MOL A   1      14.403 -21.300  -5.638  1.00  0.00     0.064 C 
ATOM     28 C17  MOL A   1      14.617 -22.575  -6.429  1.00  0.00     0.272 C 
ATOM     29 F18  MOL A   1      13.976 -23.677  -5.892  1.00  0.00    -0.204 F 
ATOM     30 F19  MOL A   1      15.941 -22.805  -6.768  1.00  0.00    -0.204 F 
ATOM     31 C20  MOL A   1      13.825 -21.890  -7.527  1.00  0.00     0.064 C 
ENDBRANCH  25  26
ENDBRANCH  20  25
BRANCH  24  32
ATOM     32 O25  MOL A   1      10.041 -17.116  -8.008  1.00  0.00    -0.493 OA
ATOM     33 C26  MOL A   1       9.062 -16.119  -7.730  1.00  0.00     0.078 C 
ENDBRANCH  24  32
ENDBRANCH  18  19
ENDBRANCH  17  18
ENDBRANCH  15  17
ENDBRANCH   8  14
ENDBRANCH   1   8
TORSDOF 10
ENDMDL
MODEL 272
REMARK VINA RESULT:    -7.208      5.448     10.163
REMARK INTER + INTRA:         -12.470
REMARK INTER:                 -11.045
REMARK INTRA:                  -1.426
REMARK UNBOUND:                -1.048
REMARK  10 active torsions:
REMARK  status: ('A' for Active; 'I' for Inactive)
REMARK   1   A    between atoms:  C27_1   and   C6_8  
REMARK   2   A    between atoms:  C6_8    and   C5_9  
REMARK   3   A    between atoms:  C5_9    and   C3_12 
REMARK   4   A    between atoms:  C6_8    and   N7_14 
REMARK   5   A    between atoms:  C8_15   and  C10_17 
REMARK   6   A    between atoms: C10_17   and  O11_18 
REMARK   7   A    between atoms: O11_18   and  C12_19 
REMARK   8   A    between atoms: C13_20   and  C14_25 
REMARK   9   A    between atoms: C14_25   and  N15_26 
REMARK   10  A    between atoms: C24_24   and  O25_32 
ROOT
ATOM      1 C27  MOL A   1      12.174 -16.573  -7.397  1.00  0.00    -0.024 A 
ATOM      2 C28  MOL A   1      11.978 -15.695  -6.316  1.00  0.00    -0.057 A 
ATOM      3 C29  MOL A   1      13.060 -15.002  -5.761  1.00  0.00    -0.061 A 
ATOM      4 C30  MOL A   1      14.345 -15.179  -6.280  1.00  0.00    -0.048 A 
ATOM      5 C31  MOL A   1      14.554 -16.047  -7.357  1.00  0.00     0.018 A 
ATOM      6 Br32 MOL A   1      16.311 -16.272  -8.080  1.00  0.00    -0.051 Br
ATOM      7 C33  MOL A   1      13.476 -16.745  -7.910  1.00  0.00    -0.043 A 
ENDROOT
BRANCH   1   8
ATOM      8  C6  MOL A   1      11.012 -17.373  -7.943  1.00  0.00     0.063 C 
BRANCH   8   9
ATOM      9  C5  MOL A   1       9.683 -16.680  -7.592  1.00  0.00     0.051 C 
BRANCH   9  12
ATOM     10  C1  MOL A   1       7.085 -16.673 -10.495  1.00  0.00     0.006 C 
ATOM     11  N2  MOL A   1       8.149 -16.274  -9.584  1.00  0.00    -0.359 N 
ATOM     12  C3  MOL A   1       8.576 -17.116  -8.508  1.00  0.00     0.222 C 
ATOM     13  O4  MOL A   1       8.024 -18.235  -8.323  1.00  0.00    -0.275 OA
ENDBRANCH   9  12
ENDBRANCH   8   9
BRANCH   8  14
ATOM     14  N7  MOL A   1      11.039 -18.739  -7.408  1.00  0.00    -0.346 N 
ATOM     15  C8  MOL A   1      11.430 -19.866  -8.196  1.00  0.00     0.258 C 
ATOM     16  O9  MOL A   1      11.759 -19.714  -9.402  1.00  0.00    -0.271 OA
BRANCH  15  17
ATOM     17 C10  MOL A   1      11.465 -21.238  -7.591  1.00  0.00     0.167 C 
BRANCH  17  18
ATOM     18 O11  MOL A   1      11.828 -22.206  -8.573  1.00  0.00    -0.480 OA
BRANCH  18  19
ATOM     19 C12  MOL A   1      11.220 -23.462  -8.636  1.00  0.00     0.166 A 
ATOM     20 C13  MOL A   1       9.983 -23.643  -9.295  1.00  0.00     0.012 A 
ATOM     21 C21  MOL A   1       9.446 -24.937  -9.403  1.00  0.00    -0.054 A 
ATOM     22 C22  MOL A   1      10.100 -26.025  -8.825  1.00  0.00    -0.058 A 
ATOM     23 C23  MOL A   1      11.295 -25.837  -8.131  1.00  0.00    -0.016 A 
ATOM     24 C24  MOL A   1      11.862 -24.553  -8.027  1.00  0.00     0.161 A 
BRANCH  20  25
ATOM     25 C14  MOL A   1       9.218 -22.480  -9.888  1.00  0.00     0.028 C 
BRANCH  25  26
ATOM     26 N15  MOL A   1       7.775 -22.788  -9.948  1.00  0.00    -0.287 NA
ATOM     27 C16  MOL A   1       7.168 -22.300 -11.198  1.00  0.00     0.064 C 
ATOM     28 C17  MOL A   1       6.309 -21.285 -10.471  1.00  0.00     0.272 C 
ATOM     29 F18  MOL A   1       4.953 -21.554 -10.539  1.00  0.00    -0.204 F 
ATOM     30 F19  MOL A   1       6.636 -19.970 -10.759  1.00  0.00    -0.204 F 
ATOM     31 C20  MOL A   1       6.966 -21.805  -9.207  1.00  0.00     0.064 C 
ENDBRANCH  25  26
ENDBRANCH  20  25
BRANCH  24  32
ATOM     32 O25  MOL A   1      13.061 -24.321  -7.338  1.00  0.00    -0.493 OA
ATOM     33 C26  MOL A   1      13.387 -24.889  -6.073  1.00  0.00     0.078 C 
ENDBRANCH  24  32
ENDBRANCH  18  19
ENDBRANCH  17  18
ENDBRANCH  15  17
ENDBRANCH   8  14
ENDBRANCH   1   8
TORSDOF 10
ENDMDL
MODEL 273
REMARK VINA RESULT:    -7.208      8.720     12.105
REMARK INTER + INTRA:         -12.470
REMARK INTER:                 -10.689
REMARK INTRA:                  -1.782
REMARK UNBOUND:                -1.048
REMARK  10 active torsions:
REMARK  status: ('A' for Active; 'I' for Inactive)
REMARK   1   A    between atoms:  C27_1   and   C6_8  
REMARK   2   A    between atoms:  C6_8    and   C5_9  
REMARK   3   A    between atoms:  C5_9    and   C3_12 
REMARK   4   A    between atoms:  C6_8    and   N7_14 
REMARK   5   A    between atoms:  C8_15   and  C10_17 
REMARK   6   A    between atoms: C10_17   and  O11_18 
REMARK   7   A    between atoms: O11_18   and  C12_19 
REMARK   8   A    between atoms: C13_20   and  C14_25 
REMARK   9   A    between atoms: C14_25   and  N15_26 
REMARK   10  A    between atoms: C24_24   and  O25_32 
ROOT
ATOM      1 C27  MOL A   1      18.058 -18.924  -5.358  1.00  0.00    -0.024 A 
ATOM      2 C28  MOL A   1      17.179 -19.058  -4.268  1.00  0.00    -0.057 A 
ATOM      3 C29  MOL A   1      16.991 -17.996  -3.376  1.00  0.00    -0.061 A 
ATOM      4 C30  MOL A   1      17.678 -16.793  -3.563  1.00  0.00    -0.048 A 
ATOM      5 C31  MOL A   1      18.552 -16.646  -4.645  1.00  0.00     0.018 A 
ATOM      6 Br32 MOL A   1      19.475 -14.992  -4.913  1.00  0.00    -0.051 Br
ATOM      7 C33  MOL A   1      18.747 -17.707  -5.536  1.00  0.00    -0.043 A 
ENDROOT
BRANCH   1   8
ATOM      8  C6  MOL A   1      18.311 -20.101  -6.275  1.00  0.00     0.063 C 
BRANCH   8   9
ATOM      9  C5  MOL A   1      19.286 -19.696  -7.396  1.00  0.00     0.051 C 
BRANCH   9  12
ATOM     10  C1  MOL A   1      20.168 -22.196 -10.250  1.00  0.00     0.006 C 
ATOM     11  N2  MOL A   1      19.645 -21.047  -9.525  1.00  0.00    -0.359 N 
ATOM     12  C3  MOL A   1      19.829 -20.898  -8.113  1.00  0.00     0.222 C 
ATOM     13  O4  MOL A   1      20.456 -21.777  -7.461  1.00  0.00    -0.275 OA
ENDBRANCH   9  12
ENDBRANCH   8   9
BRANCH   8  14
ATOM     14  N7  MOL A   1      17.047 -20.585  -6.841  1.00  0.00    -0.346 N 
ATOM     15  C8  MOL A   1      16.348 -19.885  -7.873  1.00  0.00     0.258 C 
ATOM     16  O9  MOL A   1      16.805 -18.803  -8.328  1.00  0.00    -0.271 OA
BRANCH  15  17
ATOM     17 C10  MOL A   1      15.073 -20.438  -8.435  1.00  0.00     0.167 C 
BRANCH  17  18
ATOM     18 O11  MOL A   1      13.989 -20.203  -7.538  1.00  0.00    -0.480 OA
BRANCH  18  19
ATOM     19 C12  MOL A   1      12.731 -19.793  -7.987  1.00  0.00     0.166 A 
ATOM     20 C13  MOL A   1      12.520 -18.482  -8.473  1.00  0.00     0.012 A 
ATOM     21 C21  MOL A   1      11.259 -18.138  -8.988  1.00  0.00    -0.054 A 
ATOM     22 C22  MOL A   1      10.213 -19.060  -8.975  1.00  0.00    -0.058 A 
ATOM     23 C23  MOL A   1      10.410 -20.336  -8.448  1.00  0.00    -0.016 A 
ATOM     24 C24  MOL A   1      11.669 -20.711  -7.946  1.00  0.00     0.161 A 
BRANCH  20  25
ATOM     25 C14  MOL A   1      13.615 -17.439  -8.454  1.00  0.00     0.028 C 
BRANCH  25  26
ATOM     26 N15  MOL A   1      13.579 -16.677  -7.190  1.00  0.00    -0.287 NA
ATOM     27 C16  MOL A   1      14.177 -15.340  -7.346  1.00  0.00     0.064 C 
ATOM     28 C17  MOL A   1      15.329 -15.666  -6.417  1.00  0.00     0.272 C 
ATOM     29 F18  MOL A   1      15.315 -14.942  -5.238  1.00  0.00    -0.204 F 
ATOM     30 F19  MOL A   1      16.563 -15.691  -7.046  1.00  0.00    -0.204 F 
ATOM     31 C20  MOL A   1      14.690 -17.036  -6.292  1.00  0.00     0.064 C 
ENDBRANCH  25  26
ENDBRANCH  20  25
BRANCH  24  32
ATOM     32 O25  MOL A   1      11.908 -21.984  -7.407  1.00  0.00    -0.493 OA
ATOM     33 C26  MOL A   1      12.295 -23.122  -8.169  1.00  0.00     0.078 C 
ENDBRANCH  24  32
ENDBRANCH  18  19
ENDBRANCH  17  18
ENDBRANCH  15  17
ENDBRANCH   8  14
ENDBRANCH   1   8
TORSDOF 10
ENDMDL
MODEL 274
REMARK VINA RESULT:    -7.208      6.145      9.359
REMARK INTER + INTRA:         -12.470
REMARK INTER:                 -12.150
REMARK INTRA:                  -0.320
REMARK UNBOUND:                -1.048
REMARK  10 active torsions:
REMARK  status: ('A' for Active; 'I' for Inactive)
REMARK   1   A    between atoms:  C27_1   and   C6_8  
REMARK   2   A    between atoms:  C6_8    and   C5_9  
REMARK   3   A    between atoms:  C5_9    and   C3_12 
REMARK   4   A    between atoms:  C6_8    and   N7_14 
REMARK   5   A    between atoms:  C8_15   and  C10_17 
REMARK   6   A    between atoms: C10_17   and  O11_18 
REMARK   7   A    between atoms: O11_18   and  C12_19 
REMARK   8   A    between atoms: C13_20   and  C14_25 
REMARK   9   A    between atoms: C14_25   and  N15_26 
REMARK   10  A    between atoms: C24_24   and  O25_32 
ROOT
ATOM      1 C27  MOL A   1       0.119 -22.251  -9.572  1.00  0.00    -0.024 A 
ATOM      2 C28  MOL A   1      -0.339 -23.575  -9.441  1.00  0.00    -0.057 A 
ATOM      3 C29  MOL A   1      -1.119 -24.155 -10.447  1.00  0.00    -0.061 A 
ATOM      4 C30  MOL A   1      -1.449 -23.423 -11.590  1.00  0.00    -0.048 A 
ATOM      5 C31  MOL A   1      -0.996 -22.106 -11.734  1.00  0.00     0.018 A 
ATOM      6 Br32 MOL A   1      -1.430 -21.111 -13.309  1.00  0.00    -0.051 Br
ATOM      7 C33  MOL A   1      -0.221 -21.520 -10.728  1.00  0.00    -0.043 A 
ENDROOT
BRANCH   1   8
ATOM      8  C6  MOL A   1       0.901 -21.606  -8.448  1.00  0.00     0.063 C 
BRANCH   8   9
ATOM      9  C5  MOL A   1       0.095 -20.440  -7.846  1.00  0.00     0.051 C 
BRANCH   9  12
ATOM     10  C1  MOL A   1      -3.756 -20.470  -7.261  1.00  0.00     0.006 C 
ATOM     11  N2  MOL A   1      -2.417 -20.064  -7.663  1.00  0.00    -0.359 N 
ATOM     12  C3  MOL A   1      -1.271 -20.883  -7.409  1.00  0.00     0.222 C 
ATOM     13  O4  MOL A   1      -1.404 -21.989  -6.817  1.00  0.00    -0.275 OA
ENDBRANCH   9  12
ENDBRANCH   8   9
BRANCH   8  14
ATOM     14  N7  MOL A   1       2.201 -21.136  -8.937  1.00  0.00    -0.346 N 
ATOM     15  C8  MOL A   1       3.353 -21.046  -8.095  1.00  0.00     0.258 C 
ATOM     16  O9  MOL A   1       3.277 -21.366  -6.879  1.00  0.00    -0.271 OA
BRANCH  15  17
ATOM     17 C10  MOL A   1       4.666 -20.584  -8.653  1.00  0.00     0.167 C 
BRANCH  17  18
ATOM     18 O11  MOL A   1       5.268 -19.628  -7.784  1.00  0.00    -0.480 OA
BRANCH  18  19
ATOM     19 C12  MOL A   1       6.314 -18.801  -8.203  1.00  0.00     0.166 A 
ATOM     20 C13  MOL A   1       7.570 -19.339  -8.568  1.00  0.00     0.012 A 
ATOM     21 C21  MOL A   1       8.567 -18.479  -9.058  1.00  0.00    -0.054 A 
ATOM     22 C22  MOL A   1       8.340 -17.105  -9.139  1.00  0.00    -0.058 A 
ATOM     23 C23  MOL A   1       7.117 -16.571  -8.731  1.00  0.00    -0.016 A 
ATOM     24 C24  MOL A   1       6.096 -17.415  -8.255  1.00  0.00     0.161 A 
BRANCH  20  25
ATOM     25 C14  MOL A   1       7.871 -20.816  -8.444  1.00  0.00     0.028 C 
BRANCH  25  26
ATOM     26 N15  MOL A   1       8.294 -21.367  -9.747  1.00  0.00    -0.287 NA
ATOM     27 C16  MOL A   1       7.399 -20.937 -10.834  1.00  0.00     0.064 C 
ATOM     28 C17  MOL A   1       6.898 -22.346 -11.079  1.00  0.00     0.272 C 
ATOM     29 F18  MOL A   1       7.273 -22.864 -12.307  1.00  0.00    -0.204 F 
ATOM     30 F19  MOL A   1       5.556 -22.520 -10.782  1.00  0.00    -0.204 F 
ATOM     31 C20  MOL A   1       7.822 -22.748  -9.946  1.00  0.00     0.064 C 
ENDBRANCH  25  26
ENDBRANCH  20  25
BRANCH  24  32
ATOM     32 O25  MOL A   1       4.854 -16.918  -7.834  1.00  0.00    -0.493 OA
ATOM     33 C26  MOL A   1       4.602 -16.368  -6.546  1.00  0.00     0.078 C 
ENDBRANCH  24  32
ENDBRANCH  18  19
ENDBRANCH  17  18
ENDBRANCH  15  17
ENDBRANCH   8  14
ENDBRANCH   1   8
TORSDOF 10
ENDMDL
MODEL 275
REMARK VINA RESULT:    -7.205      7.363     12.251
REMARK INTER + INTRA:         -12.466
REMARK INTER:                 -10.349
REMARK INTRA:                  -2.117
REMARK UNBOUND:                -1.048
REMARK  10 active torsions:
REMARK  status: ('A' for Active; 'I' for Inactive)
REMARK   1   A    between atoms:  C27_1   and   C6_8  
REMARK   2   A    between atoms:  C6_8    and   C5_9  
REMARK   3   A    between atoms:  C5_9    and   C3_12 
REMARK   4   A    between atoms:  C6_8    and   N7_14 
REMARK   5   A    between atoms:  C8_15   and  C10_17 
REMARK   6   A    between atoms: C10_17   and  O11_18 
REMARK   7   A    between atoms: O11_18   and  C12_19 
REMARK   8   A    between atoms: C13_20   and  C14_25 
REMARK   9   A    between atoms: C14_25   and  N15_26 
REMARK   10  A    between atoms: C24_24   and  O25_32 
ROOT
ATOM      1 C27  MOL A   1      14.014 -19.151  -7.536  1.00  0.00    -0.024 A 
ATOM      2 C28  MOL A   1      14.516 -20.217  -8.303  1.00  0.00    -0.057 A 
ATOM      3 C29  MOL A   1      15.274 -21.227  -7.701  1.00  0.00    -0.061 A 
ATOM      4 C30  MOL A   1      15.538 -21.182  -6.329  1.00  0.00    -0.048 A 
ATOM      5 C31  MOL A   1      15.041 -20.129  -5.554  1.00  0.00     0.018 A 
ATOM      6 Br32 MOL A   1      15.384 -20.080  -3.672  1.00  0.00    -0.051 Br
ATOM      7 C33  MOL A   1      14.288 -19.114  -6.153  1.00  0.00    -0.043 A 
ENDROOT
BRANCH   1   8
ATOM      8  C6  MOL A   1      13.257 -18.025  -8.207  1.00  0.00     0.063 C 
BRANCH   8   9
ATOM      9  C5  MOL A   1      12.665 -18.511  -9.543  1.00  0.00     0.051 C 
BRANCH   9  12
ATOM     10  C1  MOL A   1       9.075 -17.280  -8.669  1.00  0.00     0.006 C 
ATOM     11  N2  MOL A   1      10.518 -17.467  -8.655  1.00  0.00    -0.359 N 
ATOM     12  C3  MOL A   1      11.173 -18.346  -9.576  1.00  0.00     0.222 C 
ATOM     13  O4  MOL A   1      10.499 -18.989 -10.426  1.00  0.00    -0.275 OA
ENDBRANCH   9  12
ENDBRANCH   8   9
BRANCH   8  14
ATOM     14  N7  MOL A   1      14.142 -16.875  -8.423  1.00  0.00    -0.346 N 
ATOM     15  C8  MOL A   1      14.339 -15.861  -7.436  1.00  0.00     0.258 C 
ATOM     16  O9  MOL A   1      13.735 -15.923  -6.332  1.00  0.00    -0.271 OA
BRANCH  15  17
ATOM     17 C10  MOL A   1      15.276 -14.720  -7.697  1.00  0.00     0.167 C 
BRANCH  17  18
ATOM     18 O11  MOL A   1      16.585 -15.205  -7.984  1.00  0.00    -0.480 OA
BRANCH  18  19
ATOM     19 C12  MOL A   1      17.124 -16.317  -7.331  1.00  0.00     0.166 A 
ATOM     20 C13  MOL A   1      17.417 -17.507  -8.035  1.00  0.00     0.012 A 
ATOM     21 C21  MOL A   1      18.030 -18.573  -7.355  1.00  0.00    -0.054 A 
ATOM     22 C22  MOL A   1      18.304 -18.477  -5.990  1.00  0.00    -0.058 A 
ATOM     23 C23  MOL A   1      17.967 -17.321  -5.287  1.00  0.00    -0.016 A 
ATOM     24 C24  MOL A   1      17.371 -16.233  -5.951  1.00  0.00     0.161 A 
BRANCH  20  25
ATOM     25 C14  MOL A   1      17.086 -17.667  -9.503  1.00  0.00     0.028 C 
BRANCH  25  26
ATOM     26 N15  MOL A   1      18.317 -17.895 -10.287  1.00  0.00    -0.287 NA
ATOM     27 C16  MOL A   1      18.608 -16.760 -11.180  1.00  0.00     0.064 C 
ATOM     28 C17  MOL A   1      18.378 -17.589 -12.428  1.00  0.00     0.272 C 
ATOM     29 F18  MOL A   1      19.522 -17.791 -13.180  1.00  0.00    -0.204 F 
ATOM     30 F19  MOL A   1      17.281 -17.185 -13.172  1.00  0.00    -0.204 F 
ATOM     31 C20  MOL A   1      18.073 -18.729 -11.476  1.00  0.00     0.064 C 
ENDBRANCH  25  26
ENDBRANCH  20  25
BRANCH  24  32
ATOM     32 O25  MOL A   1      17.016 -15.053  -5.280  1.00  0.00    -0.493 OA
ATOM     33 C26  MOL A   1      16.204 -15.003  -4.113  1.00  0.00     0.078 C 
ENDBRANCH  24  32
ENDBRANCH  18  19
ENDBRANCH  17  18
ENDBRANCH  15  17
ENDBRANCH   8  14
ENDBRANCH   1   8
TORSDOF 10
ENDMDL
MODEL 276
REMARK VINA RESULT:    -7.205      6.006      8.989
REMARK INTER + INTRA:         -12.466
REMARK INTER:                 -11.038
REMARK INTRA:                  -1.428
REMARK UNBOUND:                -1.048
REMARK  10 active torsions:
REMARK  status: ('A' for Active; 'I' for Inactive)
REMARK   1   A    between atoms:  C27_1   and   C6_8  
REMARK   2   A    between atoms:  C6_8    and   C5_9  
REMARK   3   A    between atoms:  C5_9    and   C3_12 
REMARK   4   A    between atoms:  C6_8    and   N7_14 
REMARK   5   A    between atoms:  C8_15   and  C10_17 
REMARK   6   A    between atoms: C10_17   and  O11_18 
REMARK   7   A    between atoms: O11_18   and  C12_19 
REMARK   8   A    between atoms: C13_20   and  C14_25 
REMARK   9   A    between atoms: C14_25   and  N15_26 
REMARK   10  A    between atoms: C24_24   and  O25_32 
ROOT
ATOM      1 C27  MOL A   1      14.699 -17.153  -7.284  1.00  0.00    -0.024 A 
ATOM      2 C28  MOL A   1      14.681 -16.150  -8.270  1.00  0.00    -0.057 A 
ATOM      3 C29  MOL A   1      14.581 -14.802  -7.907  1.00  0.00    -0.061 A 
ATOM      4 C30  MOL A   1      14.499 -14.444  -6.559  1.00  0.00    -0.048 A 
ATOM      5 C31  MOL A   1      14.519 -15.431  -5.568  1.00  0.00     0.018 A 
ATOM      6 Br32 MOL A   1      14.429 -14.938  -3.721  1.00  0.00    -0.051 Br
ATOM      7 C33  MOL A   1      14.613 -16.780  -5.927  1.00  0.00    -0.043 A 
ENDROOT
BRANCH   1   8
ATOM      8  C6  MOL A   1      14.733 -18.611  -7.688  1.00  0.00     0.063 C 
BRANCH   8   9
ATOM      9  C5  MOL A   1      16.070 -18.935  -8.379  1.00  0.00     0.051 C 
BRANCH   9  12
ATOM     10  C1  MOL A   1      16.289 -22.441  -6.695  1.00  0.00     0.006 C 
ATOM     11  N2  MOL A   1      15.830 -21.116  -7.085  1.00  0.00    -0.359 N 
ATOM     12  C3  MOL A   1      16.576 -20.294  -7.988  1.00  0.00     0.222 C 
ATOM     13  O4  MOL A   1      17.668 -20.708  -8.466  1.00  0.00    -0.275 OA
ENDBRANCH   9  12
ENDBRANCH   8   9
BRANCH   8  14
ATOM     14  N7  MOL A   1      13.606 -18.920  -8.574  1.00  0.00    -0.346 N 
ATOM     15  C8  MOL A   1      12.424 -19.579  -8.113  1.00  0.00     0.258 C 
ATOM     16  O9  MOL A   1      12.321 -19.930  -6.908  1.00  0.00    -0.271 OA
BRANCH  15  17
ATOM     17 C10  MOL A   1      11.289 -19.847  -9.056  1.00  0.00     0.167 C 
BRANCH  17  18
ATOM     18 O11  MOL A   1      10.046 -19.502  -8.450  1.00  0.00    -0.480 OA
BRANCH  18  19
ATOM     19 C12  MOL A   1       9.272 -18.431  -8.905  1.00  0.00     0.166 A 
ATOM     20 C13  MOL A   1       8.474 -18.547 -10.066  1.00  0.00     0.012 A 
ATOM     21 C21  MOL A   1       7.651 -17.472 -10.442  1.00  0.00    -0.054 A 
ATOM     22 C22  MOL A   1       7.656 -16.286  -9.708  1.00  0.00    -0.058 A 
ATOM     23 C23  MOL A   1       8.481 -16.156  -8.591  1.00  0.00    -0.016 A 
ATOM     24 C24  MOL A   1       9.299 -17.227  -8.184  1.00  0.00     0.161 A 
BRANCH  20  25
ATOM     25 C14  MOL A   1       8.483 -19.797 -10.918  1.00  0.00     0.028 C 
BRANCH  25  26
ATOM     26 N15  MOL A   1       7.103 -20.263 -11.166  1.00  0.00    -0.287 NA
ATOM     27 C16  MOL A   1       6.369 -20.474  -9.907  1.00  0.00     0.064 C 
ATOM     28 C17  MOL A   1       6.273 -21.971 -10.129  1.00  0.00     0.272 C 
ATOM     29 F18  MOL A   1       4.981 -22.419 -10.341  1.00  0.00    -0.204 F 
ATOM     30 F19  MOL A   1       6.981 -22.719  -9.203  1.00  0.00    -0.204 F 
ATOM     31 C20  MOL A   1       7.042 -21.714 -11.410  1.00  0.00     0.064 C 
ENDBRANCH  25  26
ENDBRANCH  20  25
BRANCH  24  32
ATOM     32 O25  MOL A   1      10.144 -17.136  -7.068  1.00  0.00    -0.493 OA
ATOM     33 C26  MOL A   1      11.197 -16.188  -6.930  1.00  0.00     0.078 C 
ENDBRANCH  24  32
ENDBRANCH  18  19
ENDBRANCH  17  18
ENDBRANCH  15  17
ENDBRANCH   8  14
ENDBRANCH   1   8
TORSDOF 10
ENDMDL
MODEL 277
REMARK VINA RESULT:    -7.204      6.862     11.542
REMARK INTER + INTRA:         -12.463
REMARK INTER:                 -11.223
REMARK INTRA:                  -1.241
REMARK UNBOUND:                -1.048
REMARK  10 active torsions:
REMARK  status: ('A' for Active; 'I' for Inactive)
REMARK   1   A    between atoms:  C27_1   and   C6_8  
REMARK   2   A    between atoms:  C6_8    and   C5_9  
REMARK   3   A    between atoms:  C5_9    and   C3_12 
REMARK   4   A    between atoms:  C6_8    and   N7_14 
REMARK   5   A    between atoms:  C8_15   and  C10_17 
REMARK   6   A    between atoms: C10_17   and  O11_18 
REMARK   7   A    between atoms: O11_18   and  C12_19 
REMARK   8   A    between atoms: C13_20   and  C14_25 
REMARK   9   A    between atoms: C14_25   and  N15_26 
REMARK   10  A    between atoms: C24_24   and  O25_32 
ROOT
ATOM      1 C27  MOL A   1       9.082 -18.392  -9.516  1.00  0.00    -0.024 A 
ATOM      2 C28  MOL A   1       8.833 -17.439  -8.512  1.00  0.00    -0.057 A 
ATOM      3 C29  MOL A   1       7.973 -16.362  -8.757  1.00  0.00    -0.061 A 
ATOM      4 C30  MOL A   1       7.355 -16.228 -10.003  1.00  0.00    -0.048 A 
ATOM      5 C31  MOL A   1       7.592 -17.171 -11.009  1.00  0.00     0.018 A 
ATOM      6 Br32 MOL A   1       6.729 -16.998 -12.707  1.00  0.00    -0.051 Br
ATOM      7 C33  MOL A   1       8.455 -18.245 -10.770  1.00  0.00    -0.043 A 
ENDROOT
BRANCH   1   8
ATOM      8  C6  MOL A   1      10.069 -19.512  -9.267  1.00  0.00     0.063 C 
BRANCH   8   9
ATOM      9  C5  MOL A   1       9.327 -20.771  -8.782  1.00  0.00     0.051 C 
BRANCH   9  12
ATOM     10  C1  MOL A   1      10.320 -24.196 -10.350  1.00  0.00     0.006 C 
ATOM     11  N2  MOL A   1      10.186 -23.082  -9.423  1.00  0.00    -0.359 N 
ATOM     12  C3  MOL A   1       9.456 -21.899  -9.765  1.00  0.00     0.222 C 
ATOM     13  O4  MOL A   1       8.911 -21.798 -10.898  1.00  0.00    -0.275 OA
ENDBRANCH   9  12
ENDBRANCH   8   9
BRANCH   8  14
ATOM     14  N7  MOL A   1      11.075 -19.095  -8.285  1.00  0.00    -0.346 N 
ATOM     15  C8  MOL A   1      12.326 -18.517  -8.663  1.00  0.00     0.258 C 
ATOM     16  O9  MOL A   1      12.610 -18.356  -9.880  1.00  0.00    -0.271 OA
BRANCH  15  17
ATOM     17 C10  MOL A   1      13.308 -18.083  -7.617  1.00  0.00     0.167 C 
BRANCH  17  18
ATOM     18 O11  MOL A   1      14.590 -17.858  -8.198  1.00  0.00    -0.480 OA
BRANCH  18  19
ATOM     19 C12  MOL A   1      15.698 -17.490  -7.431  1.00  0.00     0.166 A 
ATOM     20 C13  MOL A   1      16.765 -18.391  -7.209  1.00  0.00     0.012 A 
ATOM     21 C21  MOL A   1      17.895 -17.954  -6.498  1.00  0.00    -0.054 A 
ATOM     22 C22  MOL A   1      17.946 -16.662  -5.974  1.00  0.00    -0.058 A 
ATOM     23 C23  MOL A   1      16.870 -15.791  -6.151  1.00  0.00    -0.016 A 
ATOM     24 C24  MOL A   1      15.736 -16.200  -6.877  1.00  0.00     0.161 A 
BRANCH  20  25
ATOM     25 C14  MOL A   1      16.723 -19.816  -7.716  1.00  0.00     0.028 C 
BRANCH  25  26
ATOM     26 N15  MOL A   1      16.293 -20.733  -6.642  1.00  0.00    -0.287 NA
ATOM     27 C16  MOL A   1      16.704 -22.121  -6.917  1.00  0.00     0.064 C 
ATOM     28 C17  MOL A   1      15.271 -22.592  -7.071  1.00  0.00     0.272 C 
ATOM     29 F18  MOL A   1      14.865 -23.469  -6.080  1.00  0.00    -0.204 F 
ATOM     30 F19  MOL A   1      14.957 -23.010  -8.354  1.00  0.00    -0.204 F 
ATOM     31 C20  MOL A   1      14.889 -21.151  -6.797  1.00  0.00     0.064 C 
ENDBRANCH  25  26
ENDBRANCH  20  25
BRANCH  24  32
ATOM     32 O25  MOL A   1      14.634 -15.356  -7.076  1.00  0.00    -0.493 OA
ATOM     33 C26  MOL A   1      14.674 -14.141  -7.816  1.00  0.00     0.078 C 
ENDBRANCH  24  32
ENDBRANCH  18  19
ENDBRANCH  17  18
ENDBRANCH  15  17
ENDBRANCH   8  14
ENDBRANCH   1   8
TORSDOF 10
ENDMDL
MODEL 278
REMARK VINA RESULT:    -7.201     10.183     13.572
REMARK INTER + INTRA:         -12.460
REMARK INTER:                 -10.880
REMARK INTRA:                  -1.580
REMARK UNBOUND:                -1.048
REMARK  10 active torsions:
REMARK  status: ('A' for Active; 'I' for Inactive)
REMARK   1   A    between atoms:  C27_1   and   C6_8  
REMARK   2   A    between atoms:  C6_8    and   C5_9  
REMARK   3   A    between atoms:  C5_9    and   C3_12 
REMARK   4   A    between atoms:  C6_8    and   N7_14 
REMARK   5   A    between atoms:  C8_15   and  C10_17 
REMARK   6   A    between atoms: C10_17   and  O11_18 
REMARK   7   A    between atoms: O11_18   and  C12_19 
REMARK   8   A    between atoms: C13_20   and  C14_25 
REMARK   9   A    between atoms: C14_25   and  N15_26 
REMARK   10  A    between atoms: C24_24   and  O25_32 
ROOT
ATOM      1 C27  MOL A   1      18.103 -18.518  -9.646  1.00  0.00    -0.024 A 
ATOM      2 C28  MOL A   1      19.288 -19.274  -9.605  1.00  0.00    -0.057 A 
ATOM      3 C29  MOL A   1      20.379 -18.924 -10.407  1.00  0.00    -0.061 A 
ATOM      4 C30  MOL A   1      20.298 -17.818 -11.258  1.00  0.00    -0.048 A 
ATOM      5 C31  MOL A   1      19.126 -17.055 -11.306  1.00  0.00     0.018 A 
ATOM      6 Br32 MOL A   1      19.023 -15.528 -12.454  1.00  0.00    -0.051 Br
ATOM      7 C33  MOL A   1      18.031 -17.406 -10.509  1.00  0.00    -0.043 A 
ENDROOT
BRANCH   1   8
ATOM      8  C6  MOL A   1      16.903 -18.946  -8.829  1.00  0.00     0.063 C 
BRANCH   8   9
ATOM      9  C5  MOL A   1      15.633 -18.907  -9.698  1.00  0.00     0.051 C 
BRANCH   9  12
ATOM     10  C1  MOL A   1      12.293 -18.038  -7.892  1.00  0.00     0.006 C 
ATOM     11  N2  MOL A   1      13.509 -17.932  -8.685  1.00  0.00    -0.359 N 
ATOM     12  C3  MOL A   1      14.391 -19.045  -8.865  1.00  0.00     0.222 C 
ATOM     13  O4  MOL A   1      14.129 -20.154  -8.324  1.00  0.00    -0.275 OA
ENDBRANCH   9  12
ENDBRANCH   8   9
BRANCH   8  14
ATOM     14  N7  MOL A   1      16.752 -18.080  -7.655  1.00  0.00    -0.346 N 
ATOM     15  C8  MOL A   1      17.065 -18.517  -6.331  1.00  0.00     0.258 C 
ATOM     16  O9  MOL A   1      17.479 -19.690  -6.131  1.00  0.00    -0.271 OA
BRANCH  15  17
ATOM     17 C10  MOL A   1      16.917 -17.582  -5.169  1.00  0.00     0.167 C 
BRANCH  17  18
ATOM     18 O11  MOL A   1      15.595 -17.647  -4.640  1.00  0.00    -0.480 OA
BRANCH  18  19
ATOM     19 C12  MOL A   1      15.008 -16.568  -3.975  1.00  0.00     0.166 A 
ATOM     20 C13  MOL A   1      15.023 -16.483  -2.564  1.00  0.00     0.012 A 
ATOM     21 C21  MOL A   1      14.492 -15.342  -1.940  1.00  0.00    -0.054 A 
ATOM     22 C22  MOL A   1      13.912 -14.325  -2.699  1.00  0.00    -0.058 A 
ATOM     23 C23  MOL A   1      13.853 -14.434  -4.088  1.00  0.00    -0.016 A 
ATOM     24 C24  MOL A   1      14.397 -15.559  -4.737  1.00  0.00     0.161 A 
BRANCH  20  25
ATOM     25 C14  MOL A   1      15.596 -17.589  -1.705  1.00  0.00     0.028 C 
BRANCH  25  26
ATOM     26 N15  MOL A   1      14.608 -18.675  -1.537  1.00  0.00    -0.287 NA
ATOM     27 C16  MOL A   1      14.583 -19.175  -0.152  1.00  0.00     0.064 C 
ATOM     28 C17  MOL A   1      15.115 -20.536  -0.557  1.00  0.00     0.272 C 
ATOM     29 F18  MOL A   1      14.204 -21.563  -0.384  1.00  0.00    -0.204 F 
ATOM     30 F19  MOL A   1      16.376 -20.814  -0.054  1.00  0.00    -0.204 F 
ATOM     31 C20  MOL A   1      15.138 -19.980  -1.967  1.00  0.00     0.064 C 
ENDBRANCH  25  26
ENDBRANCH  20  25
BRANCH  24  32
ATOM     32 O25  MOL A   1      14.357 -15.707  -6.131  1.00  0.00    -0.493 OA
ATOM     33 C26  MOL A   1      14.365 -14.625  -7.056  1.00  0.00     0.078 C 
ENDBRANCH  24  32
ENDBRANCH  18  19
ENDBRANCH  17  18
ENDBRANCH  15  17
ENDBRANCH   8  14
ENDBRANCH   1   8
TORSDOF 10
ENDMDL
MODEL 279
REMARK VINA RESULT:    -7.200      6.783      9.439
REMARK INTER + INTRA:         -12.457
REMARK INTER:                 -11.034
REMARK INTRA:                  -1.423
REMARK UNBOUND:                -1.048
REMARK  10 active torsions:
REMARK  status: ('A' for Active; 'I' for Inactive)
REMARK   1   A    between atoms:  C27_1   and   C6_8  
REMARK   2   A    between atoms:  C6_8    and   C5_9  
REMARK   3   A    between atoms:  C5_9    and   C3_12 
REMARK   4   A    between atoms:  C6_8    and   N7_14 
REMARK   5   A    between atoms:  C8_15   and  C10_17 
REMARK   6   A    between atoms: C10_17   and  O11_18 
REMARK   7   A    between atoms: O11_18   and  C12_19 
REMARK   8   A    between atoms: C13_20   and  C14_25 
REMARK   9   A    between atoms: C14_25   and  N15_26 
REMARK   10  A    between atoms: C24_24   and  O25_32 
ROOT
ATOM      1 C27  MOL A   1       7.383 -21.509  -9.656  1.00  0.00    -0.024 A 
ATOM      2 C28  MOL A   1       6.648 -22.278 -10.577  1.00  0.00    -0.057 A 
ATOM      3 C29  MOL A   1       5.250 -22.297 -10.525  1.00  0.00    -0.061 A 
ATOM      4 C30  MOL A   1       4.573 -21.551  -9.557  1.00  0.00    -0.048 A 
ATOM      5 C31  MOL A   1       5.292 -20.780  -8.637  1.00  0.00     0.018 A 
ATOM      6 Br32 MOL A   1       4.364 -19.741  -7.325  1.00  0.00    -0.051 Br
ATOM      7 C33  MOL A   1       6.690 -20.762  -8.682  1.00  0.00    -0.043 A 
ENDROOT
BRANCH   1   8
ATOM      8  C6  MOL A   1       8.896 -21.551  -9.672  1.00  0.00     0.063 C 
BRANCH   8   9
ATOM      9  C5  MOL A   1       9.388 -22.959  -9.291  1.00  0.00     0.051 C 
BRANCH   9  12
ATOM     10  C1  MOL A   1      11.731 -25.333 -11.303  1.00  0.00     0.006 C 
ATOM     11  N2  MOL A   1      11.050 -24.657 -10.208  1.00  0.00    -0.359 N 
ATOM     12  C3  MOL A   1      10.081 -23.630 -10.442  1.00  0.00     0.222 C 
ATOM     13  O4  MOL A   1       9.800 -23.282 -11.621  1.00  0.00    -0.275 OA
ENDBRANCH   9  12
ENDBRANCH   8   9
BRANCH   8  14
ATOM     14  N7  MOL A   1       9.442 -20.547  -8.752  1.00  0.00    -0.346 N 
ATOM     15  C8  MOL A   1      10.245 -19.452  -9.198  1.00  0.00     0.258 C 
ATOM     16  O9  MOL A   1      10.520 -19.323 -10.420  1.00  0.00    -0.271 OA
BRANCH  15  17
ATOM     17 C10  MOL A   1      10.756 -18.439  -8.219  1.00  0.00     0.167 C 
BRANCH  17  18
ATOM     18 O11  MOL A   1      11.756 -19.014  -7.381  1.00  0.00    -0.480 OA
BRANCH  18  19
ATOM     19 C12  MOL A   1      13.017 -19.369  -7.868  1.00  0.00     0.166 A 
ATOM     20 C13  MOL A   1      13.944 -18.385  -8.281  1.00  0.00     0.012 A 
ATOM     21 C21  MOL A   1      15.228 -18.782  -8.689  1.00  0.00    -0.054 A 
ATOM     22 C22  MOL A   1      15.571 -20.133  -8.733  1.00  0.00    -0.058 A 
ATOM     23 C23  MOL A   1      14.638 -21.105  -8.373  1.00  0.00    -0.016 A 
ATOM     24 C24  MOL A   1      13.352 -20.730  -7.942  1.00  0.00     0.161 A 
BRANCH  20  25
ATOM     25 C14  MOL A   1      13.591 -16.914  -8.298  1.00  0.00     0.028 C 
BRANCH  25  26
ATOM     26 N15  MOL A   1      14.476 -16.160  -7.387  1.00  0.00    -0.287 NA
ATOM     27 C16  MOL A   1      14.233 -16.515  -5.979  1.00  0.00     0.064 C 
ATOM     28 C17  MOL A   1      13.710 -15.132  -5.644  1.00  0.00     0.272 C 
ATOM     29 F18  MOL A   1      14.523 -14.426  -4.775  1.00  0.00    -0.204 F 
ATOM     30 F19  MOL A   1      12.369 -15.111  -5.300  1.00  0.00    -0.204 F 
ATOM     31 C20  MOL A   1      13.962 -14.809  -7.104  1.00  0.00     0.064 C 
ENDBRANCH  25  26
ENDBRANCH  20  25
BRANCH  24  32
ATOM     32 O25  MOL A   1      12.385 -21.676  -7.572  1.00  0.00    -0.493 OA
ATOM     33 C26  MOL A   1      12.671 -23.027  -7.223  1.00  0.00     0.078 C 
ENDBRANCH  24  32
ENDBRANCH  18  19
ENDBRANCH  17  18
ENDBRANCH  15  17
ENDBRANCH   8  14
ENDBRANCH   1   8
TORSDOF 10
ENDMDL
MODEL 280
REMARK VINA RESULT:    -7.197      7.574     11.604
REMARK INTER + INTRA:         -12.453
REMARK INTER:                 -10.891
REMARK INTRA:                  -1.562
REMARK UNBOUND:                -1.048
REMARK  10 active torsions:
REMARK  status: ('A' for Active; 'I' for Inactive)
REMARK   1   A    between atoms:  C27_1   and   C6_8  
REMARK   2   A    between atoms:  C6_8    and   C5_9  
REMARK   3   A    between atoms:  C5_9    and   C3_12 
REMARK   4   A    between atoms:  C6_8    and   N7_14 
REMARK   5   A    between atoms:  C8_15   and  C10_17 
REMARK   6   A    between atoms: C10_17   and  O11_18 
REMARK   7   A    between atoms: O11_18   and  C12_19 
REMARK   8   A    between atoms: C13_20   and  C14_25 
REMARK   9   A    between atoms: C14_25   and  N15_26 
REMARK   10  A    between atoms: C24_24   and  O25_32 
ROOT
ATOM      1 C27  MOL A   1      10.524 -18.528  -8.943  1.00  0.00    -0.024 A 
ATOM      2 C28  MOL A   1      10.496 -18.853 -10.311  1.00  0.00    -0.057 A 
ATOM      3 C29  MOL A   1       9.358 -18.584 -11.080  1.00  0.00    -0.061 A 
ATOM      4 C30  MOL A   1       8.239 -17.988 -10.491  1.00  0.00    -0.048 A 
ATOM      5 C31  MOL A   1       8.255 -17.657  -9.131  1.00  0.00     0.018 A 
ATOM      6 Br32 MOL A   1       6.731 -16.822  -8.331  1.00  0.00    -0.051 Br
ATOM      7 C33  MOL A   1       9.389 -17.930  -8.359  1.00  0.00    -0.043 A 
ENDROOT
BRANCH   1   8
ATOM      8  C6  MOL A   1      11.730 -18.889  -8.103  1.00  0.00     0.063 C 
BRANCH   8   9
ATOM      9  C5  MOL A   1      11.376 -20.034  -7.137  1.00  0.00     0.051 C 
BRANCH   9  12
ATOM     10  C1  MOL A   1      14.632 -22.127  -7.570  1.00  0.00     0.006 C 
ATOM     11  N2  MOL A   1      13.453 -21.322  -7.853  1.00  0.00    -0.359 N 
ATOM     12  C3  MOL A   1      12.578 -20.873  -6.813  1.00  0.00     0.222 C 
ATOM     13  O4  MOL A   1      12.815 -21.178  -5.612  1.00  0.00    -0.275 OA
ENDBRANCH   9  12
ENDBRANCH   8   9
BRANCH   8  14
ATOM     14  N7  MOL A   1      12.203 -17.715  -7.362  1.00  0.00    -0.346 N 
ATOM     15  C8  MOL A   1      13.426 -17.048  -7.679  1.00  0.00     0.258 C 
ATOM     16  O9  MOL A   1      14.153 -17.466  -8.619  1.00  0.00    -0.271 OA
BRANCH  15  17
ATOM     17 C10  MOL A   1      13.851 -15.835  -6.906  1.00  0.00     0.167 C 
BRANCH  17  18
ATOM     18 O11  MOL A   1      15.097 -16.069  -6.255  1.00  0.00    -0.480 OA
BRANCH  18  19
ATOM     19 C12  MOL A   1      15.172 -16.619  -4.973  1.00  0.00     0.166 A 
ATOM     20 C13  MOL A   1      15.620 -17.944  -4.770  1.00  0.00     0.012 A 
ATOM     21 C21  MOL A   1      15.755 -18.429  -3.458  1.00  0.00    -0.054 A 
ATOM     22 C22  MOL A   1      15.406 -17.631  -2.369  1.00  0.00    -0.058 A 
ATOM     23 C23  MOL A   1      14.917 -16.341  -2.573  1.00  0.00    -0.016 A 
ATOM     24 C24  MOL A   1      14.792 -15.826  -3.877  1.00  0.00     0.161 A 
BRANCH  20  25
ATOM     25 C14  MOL A   1      15.957 -18.857  -5.928  1.00  0.00     0.028 C 
BRANCH  25  26
ATOM     26 N15  MOL A   1      17.305 -19.437  -5.753  1.00  0.00    -0.287 NA
ATOM     27 C16  MOL A   1      18.360 -18.435  -5.983  1.00  0.00     0.064 C 
ATOM     28 C17  MOL A   1      18.869 -19.149  -7.219  1.00  0.00     0.272 C 
ATOM     29 F18  MOL A   1      20.140 -19.678  -7.072  1.00  0.00    -0.204 F 
ATOM     30 F19  MOL A   1      18.693 -18.430  -8.390  1.00  0.00    -0.204 F 
ATOM     31 C20  MOL A   1      17.763 -20.152  -6.957  1.00  0.00     0.064 C 
ENDBRANCH  25  26
ENDBRANCH  20  25
BRANCH  24  32
ATOM     32 O25  MOL A   1      14.303 -14.535  -4.126  1.00  0.00    -0.493 OA
ATOM     33 C26  MOL A   1      13.893 -13.621  -3.115  1.00  0.00     0.078 C 
ENDBRANCH  24  32
ENDBRANCH  18  19
ENDBRANCH  17  18
ENDBRANCH  15  17
ENDBRANCH   8  14
ENDBRANCH   1   8
TORSDOF 10
ENDMDL
MODEL 281
REMARK VINA RESULT:    -7.195      5.946     10.393
REMARK INTER + INTRA:         -12.450
REMARK INTER:                 -11.255
REMARK INTRA:                  -1.195
REMARK UNBOUND:                -1.048
REMARK  10 active torsions:
REMARK  status: ('A' for Active; 'I' for Inactive)
REMARK   1   A    between atoms:  C27_1   and   C6_8  
REMARK   2   A    between atoms:  C6_8    and   C5_9  
REMARK   3   A    between atoms:  C5_9    and   C3_12 
REMARK   4   A    between atoms:  C6_8    and   N7_14 
REMARK   5   A    between atoms:  C8_15   and  C10_17 
REMARK   6   A    between atoms: C10_17   and  O11_18 
REMARK   7   A    between atoms: O11_18   and  C12_19 
REMARK   8   A    between atoms: C13_20   and  C14_25 
REMARK   9   A    between atoms: C14_25   and  N15_26 
REMARK   10  A    between atoms: C24_24   and  O25_32 
ROOT
ATOM      1 C27  MOL A   1       8.784 -18.760  -8.912  1.00  0.00    -0.024 A 
ATOM      2 C28  MOL A   1       9.142 -17.435  -9.223  1.00  0.00    -0.057 A 
ATOM      3 C29  MOL A   1       8.227 -16.393  -9.039  1.00  0.00    -0.061 A 
ATOM      4 C30  MOL A   1       6.948 -16.662  -8.545  1.00  0.00    -0.048 A 
ATOM      5 C31  MOL A   1       6.580 -17.975  -8.228  1.00  0.00     0.018 A 
ATOM      6 Br32 MOL A   1       4.837 -18.340  -7.530  1.00  0.00    -0.051 Br
ATOM      7 C33  MOL A   1       7.491 -19.020  -8.416  1.00  0.00    -0.043 A 
ENDROOT
BRANCH   1   8
ATOM      8  C6  MOL A   1       9.754 -19.890  -9.182  1.00  0.00     0.063 C 
BRANCH   8   9
ATOM      9  C5  MOL A   1       9.049 -21.245  -9.000  1.00  0.00     0.051 C 
BRANCH   9  12
ATOM     10  C1  MOL A   1      10.820 -24.478 -10.258  1.00  0.00     0.006 C 
ATOM     11  N2  MOL A   1      10.271 -23.445  -9.392  1.00  0.00    -0.359 N 
ATOM     12  C3  MOL A   1       9.614 -22.288  -9.920  1.00  0.00     0.222 C 
ATOM     13  O4  MOL A   1       9.502 -22.139 -11.168  1.00  0.00    -0.275 OA
ENDBRANCH   9  12
ENDBRANCH   8   9
BRANCH   8  14
ATOM     14  N7  MOL A   1      10.915 -19.787  -8.291  1.00  0.00    -0.346 N 
ATOM     15  C8  MOL A   1      12.134 -19.156  -8.686  1.00  0.00     0.258 C 
ATOM     16  O9  MOL A   1      12.252 -18.667  -9.841  1.00  0.00    -0.271 OA
BRANCH  15  17
ATOM     17 C10  MOL A   1      13.282 -19.055  -7.726  1.00  0.00     0.167 C 
BRANCH  17  18
ATOM     18 O11  MOL A   1      14.516 -19.294  -8.397  1.00  0.00    -0.480 OA
BRANCH  18  19
ATOM     19 C12  MOL A   1      15.750 -19.115  -7.765  1.00  0.00     0.166 A 
ATOM     20 C13  MOL A   1      16.349 -17.837  -7.678  1.00  0.00     0.012 A 
ATOM     21 C21  MOL A   1      17.550 -17.691  -6.966  1.00  0.00    -0.054 A 
ATOM     22 C22  MOL A   1      18.173 -18.799  -6.391  1.00  0.00    -0.058 A 
ATOM     23 C23  MOL A   1      17.606 -20.067  -6.522  1.00  0.00    -0.016 A 
ATOM     24 C24  MOL A   1      16.393 -20.236  -7.214  1.00  0.00     0.161 A 
BRANCH  20  25
ATOM     25 C14  MOL A   1      15.731 -16.622  -8.333  1.00  0.00     0.028 C 
BRANCH  25  26
ATOM     26 N15  MOL A   1      15.673 -15.495  -7.379  1.00  0.00    -0.287 NA
ATOM     27 C16  MOL A   1      14.842 -15.819  -6.208  1.00  0.00     0.064 C 
ATOM     28 C17  MOL A   1      13.798 -14.782  -6.570  1.00  0.00     0.272 C 
ATOM     29 F18  MOL A   1      13.722 -13.732  -5.671  1.00  0.00    -0.204 F 
ATOM     30 F19  MOL A   1      12.567 -15.323  -6.906  1.00  0.00    -0.204 F 
ATOM     31 C20  MOL A   1      14.674 -14.486  -7.771  1.00  0.00     0.064 C 
ENDBRANCH  25  26
ENDBRANCH  20  25
BRANCH  24  32
ATOM     32 O25  MOL A   1      15.791 -21.493  -7.368  1.00  0.00    -0.493 OA
ATOM     33 C26  MOL A   1      15.123 -22.200  -6.328  1.00  0.00     0.078 C 
ENDBRANCH  24  32
ENDBRANCH  18  19
ENDBRANCH  17  18
ENDBRANCH  15  17
ENDBRANCH   8  14
ENDBRANCH   1   8
TORSDOF 10
ENDMDL
MODEL 282
REMARK VINA RESULT:    -7.193      7.301     11.953
REMARK INTER + INTRA:         -12.447
REMARK INTER:                 -10.685
REMARK INTRA:                  -1.762
REMARK UNBOUND:                -1.048
REMARK  10 active torsions:
REMARK  status: ('A' for Active; 'I' for Inactive)
REMARK   1   A    between atoms:  C27_1   and   C6_8  
REMARK   2   A    between atoms:  C6_8    and   C5_9  
REMARK   3   A    between atoms:  C5_9    and   C3_12 
REMARK   4   A    between atoms:  C6_8    and   N7_14 
REMARK   5   A    between atoms:  C8_15   and  C10_17 
REMARK   6   A    between atoms: C10_17   and  O11_18 
REMARK   7   A    between atoms: O11_18   and  C12_19 
REMARK   8   A    between atoms: C13_20   and  C14_25 
REMARK   9   A    between atoms: C14_25   and  N15_26 
REMARK   10  A    between atoms: C24_24   and  O25_32 
ROOT
ATOM      1 C27  MOL A   1      10.022 -18.435  -8.100  1.00  0.00    -0.024 A 
ATOM      2 C28  MOL A   1       9.836 -17.051  -8.269  1.00  0.00    -0.057 A 
ATOM      3 C29  MOL A   1       8.575 -16.541  -8.599  1.00  0.00    -0.061 A 
ATOM      4 C30  MOL A   1       7.490 -17.407  -8.763  1.00  0.00    -0.048 A 
ATOM      5 C31  MOL A   1       7.661 -18.785  -8.594  1.00  0.00     0.018 A 
ATOM      6 Br32 MOL A   1       6.170 -19.967  -8.797  1.00  0.00    -0.051 Br
ATOM      7 C33  MOL A   1       8.921 -19.299  -8.270  1.00  0.00    -0.043 A 
ENDROOT
BRANCH   1   8
ATOM      8  C6  MOL A   1      11.403 -18.984  -7.815  1.00  0.00     0.063 C 
BRANCH   8   9
ATOM      9  C5  MOL A   1      11.298 -20.254  -6.952  1.00  0.00     0.051 C 
BRANCH   9  12
ATOM     10  C1  MOL A   1      13.835 -23.057  -7.891  1.00  0.00     0.006 C 
ATOM     11  N2  MOL A   1      13.214 -21.906  -7.253  1.00  0.00    -0.359 N 
ATOM     12  C3  MOL A   1      11.916 -21.438  -7.638  1.00  0.00     0.222 C 
ATOM     13  O4  MOL A   1      11.281 -22.022  -8.558  1.00  0.00    -0.275 OA
ENDBRANCH   9  12
ENDBRANCH   8   9
BRANCH   8  14
ATOM     14  N7  MOL A   1      12.225 -17.970  -7.144  1.00  0.00    -0.346 N 
ATOM     15  C8  MOL A   1      13.580 -17.709  -7.516  1.00  0.00     0.258 C 
ATOM     16  O9  MOL A   1      14.121 -18.365  -8.445  1.00  0.00    -0.271 OA
BRANCH  15  17
ATOM     17 C10  MOL A   1      14.366 -16.643  -6.814  1.00  0.00     0.167 C 
BRANCH  17  18
ATOM     18 O11  MOL A   1      14.865 -17.129  -5.570  1.00  0.00    -0.480 OA
BRANCH  18  19
ATOM     19 C12  MOL A   1      16.072 -16.678  -5.029  1.00  0.00     0.166 A 
ATOM     20 C13  MOL A   1      17.313 -17.127  -5.535  1.00  0.00     0.012 A 
ATOM     21 C21  MOL A   1      18.501 -16.588  -5.014  1.00  0.00    -0.054 A 
ATOM     22 C22  MOL A   1      18.461 -15.657  -3.976  1.00  0.00    -0.058 A 
ATOM     23 C23  MOL A   1      17.237 -15.253  -3.444  1.00  0.00    -0.016 A 
ATOM     24 C24  MOL A   1      16.033 -15.764  -3.963  1.00  0.00     0.161 A 
BRANCH  20  25
ATOM     25 C14  MOL A   1      17.398 -18.175  -6.623  1.00  0.00     0.028 C 
BRANCH  25  26
ATOM     26 N15  MOL A   1      17.510 -19.524  -6.033  1.00  0.00    -0.287 NA
ATOM     27 C16  MOL A   1      18.262 -20.438  -6.909  1.00  0.00     0.064 C 
ATOM     28 C17  MOL A   1      17.047 -21.307  -7.168  1.00  0.00     0.272 C 
ATOM     29 F18  MOL A   1      17.151 -22.581  -6.636  1.00  0.00    -0.204 F 
ATOM     30 F19  MOL A   1      16.614 -21.282  -8.483  1.00  0.00    -0.204 F 
ATOM     31 C20  MOL A   1      16.304 -20.337  -6.271  1.00  0.00     0.064 C 
ENDBRANCH  25  26
ENDBRANCH  20  25
BRANCH  24  32
ATOM     32 O25  MOL A   1      14.782 -15.385  -3.456  1.00  0.00    -0.493 OA
ATOM     33 C26  MOL A   1      14.027 -14.272  -3.922  1.00  0.00     0.078 C 
ENDBRANCH  24  32
ENDBRANCH  18  19
ENDBRANCH  17  18
ENDBRANCH  15  17
ENDBRANCH   8  14
ENDBRANCH   1   8
TORSDOF 10
ENDMDL
MODEL 283
REMARK VINA RESULT:    -7.192      5.786      9.191
REMARK INTER + INTRA:         -12.444
REMARK INTER:                 -10.794
REMARK INTRA:                  -1.650
REMARK UNBOUND:                -1.048
REMARK  10 active torsions:
REMARK  status: ('A' for Active; 'I' for Inactive)
REMARK   1   A    between atoms:  C27_1   and   C6_8  
REMARK   2   A    between atoms:  C6_8    and   C5_9  
REMARK   3   A    between atoms:  C5_9    and   C3_12 
REMARK   4   A    between atoms:  C6_8    and   N7_14 
REMARK   5   A    between atoms:  C8_15   and  C10_17 
REMARK   6   A    between atoms: C10_17   and  O11_18 
REMARK   7   A    between atoms: O11_18   and  C12_19 
REMARK   8   A    between atoms: C13_20   and  C14_25 
REMARK   9   A    between atoms: C14_25   and  N15_26 
REMARK   10  A    between atoms: C24_24   and  O25_32 
ROOT
ATOM      1 C27  MOL A   1       9.281 -17.811  -9.243  1.00  0.00    -0.024 A 
ATOM      2 C28  MOL A   1       9.553 -18.640 -10.347  1.00  0.00    -0.057 A 
ATOM      3 C29  MOL A   1       8.786 -18.540 -11.513  1.00  0.00    -0.061 A 
ATOM      4 C30  MOL A   1       7.743 -17.613 -11.589  1.00  0.00    -0.048 A 
ATOM      5 C31  MOL A   1       7.464 -16.781 -10.500  1.00  0.00     0.018 A 
ATOM      6 Br32 MOL A   1       6.049 -15.497 -10.613  1.00  0.00    -0.051 Br
ATOM      7 C33  MOL A   1       8.225 -16.882  -9.330  1.00  0.00    -0.043 A 
ENDROOT
BRANCH   1   8
ATOM      8  C6  MOL A   1      10.067 -17.976  -7.961  1.00  0.00     0.063 C 
BRANCH   8   9
ATOM      9  C5  MOL A   1      10.889 -16.705  -7.679  1.00  0.00     0.051 C 
BRANCH   9  12
ATOM     10  C1  MOL A   1      14.669 -17.231  -6.899  1.00  0.00     0.006 C 
ATOM     11  N2  MOL A   1      13.242 -16.989  -6.746  1.00  0.00    -0.359 N 
ATOM     12  C3  MOL A   1      12.359 -16.947  -7.872  1.00  0.00     0.222 C 
ATOM     13  O4  MOL A   1      12.811 -17.117  -9.037  1.00  0.00    -0.275 OA
ENDBRANCH   9  12
ENDBRANCH   8   9
BRANCH   8  14
ATOM     14  N7  MOL A   1      10.943 -19.149  -8.048  1.00  0.00    -0.346 N 
ATOM     15  C8  MOL A   1      10.944 -20.183  -7.062  1.00  0.00     0.258 C 
ATOM     16  O9  MOL A   1      10.182 -20.108  -6.062  1.00  0.00    -0.271 OA
BRANCH  15  17
ATOM     17 C10  MOL A   1      11.842 -21.375  -7.214  1.00  0.00     0.167 C 
BRANCH  17  18
ATOM     18 O11  MOL A   1      11.750 -21.903  -8.535  1.00  0.00    -0.480 OA
BRANCH  18  19
ATOM     19 C12  MOL A   1      11.166 -23.145  -8.798  1.00  0.00     0.166 A 
ATOM     20 C13  MOL A   1       9.852 -23.240  -9.313  1.00  0.00     0.012 A 
ATOM     21 C21  MOL A   1       9.334 -24.505  -9.637  1.00  0.00    -0.054 A 
ATOM     22 C22  MOL A   1      10.085 -25.658  -9.409  1.00  0.00    -0.058 A 
ATOM     23 C23  MOL A   1      11.361 -25.565  -8.854  1.00  0.00    -0.016 A 
ATOM     24 C24  MOL A   1      11.910 -24.308  -8.540  1.00  0.00     0.161 A 
BRANCH  20  25
ATOM     25 C14  MOL A   1       8.988 -22.017  -9.523  1.00  0.00     0.028 C 
BRANCH  25  26
ATOM     26 N15  MOL A   1       7.573 -22.407  -9.684  1.00  0.00    -0.287 NA
ATOM     27 C16  MOL A   1       6.888 -21.562 -10.677  1.00  0.00     0.064 C 
ATOM     28 C17  MOL A   1       5.975 -20.948  -9.634  1.00  0.00     0.272 C 
ATOM     29 F18  MOL A   1       4.644 -21.291  -9.789  1.00  0.00    -0.204 F 
ATOM     30 F19  MOL A   1       6.187 -19.593  -9.437  1.00  0.00    -0.204 F 
ATOM     31 C20  MOL A   1       6.713 -21.823  -8.640  1.00  0.00     0.064 C 
ENDBRANCH  25  26
ENDBRANCH  20  25
BRANCH  24  32
ATOM     32 O25  MOL A   1      13.188 -24.171  -7.980  1.00  0.00    -0.493 OA
ATOM     33 C26  MOL A   1      14.313 -23.625  -8.662  1.00  0.00     0.078 C 
ENDBRANCH  24  32
ENDBRANCH  18  19
ENDBRANCH  17  18
ENDBRANCH  15  17
ENDBRANCH   8  14
ENDBRANCH   1   8
TORSDOF 10
ENDMDL
MODEL 284
REMARK VINA RESULT:    -7.191      6.050     10.933
REMARK INTER + INTRA:         -12.444
REMARK INTER:                 -11.448
REMARK INTRA:                  -0.996
REMARK UNBOUND:                -1.048
REMARK  10 active torsions:
REMARK  status: ('A' for Active; 'I' for Inactive)
REMARK   1   A    between atoms:  C27_1   and   C6_8  
REMARK   2   A    between atoms:  C6_8    and   C5_9  
REMARK   3   A    between atoms:  C5_9    and   C3_12 
REMARK   4   A    between atoms:  C6_8    and   N7_14 
REMARK   5   A    between atoms:  C8_15   and  C10_17 
REMARK   6   A    between atoms: C10_17   and  O11_18 
REMARK   7   A    between atoms: O11_18   and  C12_19 
REMARK   8   A    between atoms: C13_20   and  C14_25 
REMARK   9   A    between atoms: C14_25   and  N15_26 
REMARK   10  A    between atoms: C24_24   and  O25_32 
ROOT
ATOM      1 C27  MOL A   1       8.484 -17.801  -9.163  1.00  0.00    -0.024 A 
ATOM      2 C28  MOL A   1       8.211 -17.385 -10.479  1.00  0.00    -0.057 A 
ATOM      3 C29  MOL A   1       7.073 -16.620 -10.758  1.00  0.00    -0.061 A 
ATOM      4 C30  MOL A   1       6.198 -16.264  -9.728  1.00  0.00    -0.048 A 
ATOM      5 C31  MOL A   1       6.460 -16.669  -8.414  1.00  0.00     0.018 A 
ATOM      6 Br32 MOL A   1       5.273 -16.163  -7.001  1.00  0.00    -0.051 Br
ATOM      7 C33  MOL A   1       7.594 -17.438  -8.133  1.00  0.00    -0.043 A 
ENDROOT
BRANCH   1   8
ATOM      8  C6  MOL A   1       9.677 -18.689  -8.882  1.00  0.00     0.063 C 
BRANCH   8   9
ATOM      9  C5  MOL A   1       9.211 -20.019  -8.264  1.00  0.00     0.051 C 
BRANCH   9  12
ATOM     10  C1  MOL A   1       7.134 -22.705 -10.174  1.00  0.00     0.006 C 
ATOM     11  N2  MOL A   1       7.580 -21.757  -9.163  1.00  0.00    -0.359 N 
ATOM     12  C3  MOL A   1       8.783 -20.997  -9.320  1.00  0.00     0.222 C 
ATOM     13  O4  MOL A   1       9.493 -21.142 -10.353  1.00  0.00    -0.275 OA
ENDBRANCH   9  12
ENDBRANCH   8   9
BRANCH   8  14
ATOM     14  N7  MOL A   1      10.619 -18.006  -7.988  1.00  0.00    -0.346 N 
ATOM     15  C8  MOL A   1      11.973 -17.738  -8.358  1.00  0.00     0.258 C 
ATOM     16  O9  MOL A   1      12.407 -18.098  -9.485  1.00  0.00    -0.271 OA
BRANCH  15  17
ATOM     17 C10  MOL A   1      12.887 -17.013  -7.416  1.00  0.00     0.167 C 
BRANCH  17  18
ATOM     18 O11  MOL A   1      14.228 -17.046  -7.897  1.00  0.00    -0.480 OA
BRANCH  18  19
ATOM     19 C12  MOL A   1      15.326 -17.050  -7.033  1.00  0.00     0.166 A 
ATOM     20 C13  MOL A   1      15.597 -18.159  -6.198  1.00  0.00     0.012 A 
ATOM     21 C21  MOL A   1      16.755 -18.152  -5.404  1.00  0.00    -0.054 A 
ATOM     22 C22  MOL A   1      17.605 -17.046  -5.400  1.00  0.00    -0.058 A 
ATOM     23 C23  MOL A   1      17.309 -15.932  -6.186  1.00  0.00    -0.016 A 
ATOM     24 C24  MOL A   1      16.165 -15.924  -7.005  1.00  0.00     0.161 A 
BRANCH  20  25
ATOM     25 C14  MOL A   1      14.671 -19.353  -6.136  1.00  0.00     0.028 C 
BRANCH  25  26
ATOM     26 N15  MOL A   1      15.258 -20.500  -6.860  1.00  0.00    -0.287 NA
ATOM     27 C16  MOL A   1      14.668 -20.654  -8.200  1.00  0.00     0.064 C 
ATOM     28 C17  MOL A   1      14.024 -21.980  -7.844  1.00  0.00     0.272 C 
ATOM     29 F18  MOL A   1      14.554 -23.057  -8.532  1.00  0.00    -0.204 F 
ATOM     30 F19  MOL A   1      12.640 -21.944  -7.838  1.00  0.00    -0.204 F 
ATOM     31 C20  MOL A   1      14.638 -21.778  -6.472  1.00  0.00     0.064 C 
ENDBRANCH  25  26
ENDBRANCH  20  25
BRANCH  24  32
ATOM     32 O25  MOL A   1      15.832 -14.824  -7.809  1.00  0.00    -0.493 OA
ATOM     33 C26  MOL A   1      14.662 -14.030  -7.644  1.00  0.00     0.078 C 
ENDBRANCH  24  32
ENDBRANCH  18  19
ENDBRANCH  17  18
ENDBRANCH  15  17
ENDBRANCH   8  14
ENDBRANCH   1   8
TORSDOF 10
ENDMDL
MODEL 285
REMARK VINA RESULT:    -7.190      4.793      7.767
REMARK INTER + INTRA:         -12.442
REMARK INTER:                 -10.203
REMARK INTRA:                  -2.239
REMARK UNBOUND:                -1.048
REMARK  10 active torsions:
REMARK  status: ('A' for Active; 'I' for Inactive)
REMARK   1   A    between atoms:  C27_1   and   C6_8  
REMARK   2   A    between atoms:  C6_8    and   C5_9  
REMARK   3   A    between atoms:  C5_9    and   C3_12 
REMARK   4   A    between atoms:  C6_8    and   N7_14 
REMARK   5   A    between atoms:  C8_15   and  C10_17 
REMARK   6   A    between atoms: C10_17   and  O11_18 
REMARK   7   A    between atoms: O11_18   and  C12_19 
REMARK   8   A    between atoms: C13_20   and  C14_25 
REMARK   9   A    between atoms: C14_25   and  N15_26 
REMARK   10  A    between atoms: C24_24   and  O25_32 
ROOT
ATOM      1 C27  MOL A   1       5.975 -22.091  -9.945  1.00  0.00    -0.024 A 
ATOM      2 C28  MOL A   1       6.118 -21.586 -11.250  1.00  0.00    -0.057 A 
ATOM      3 C29  MOL A   1       7.319 -21.755 -11.947  1.00  0.00    -0.061 A 
ATOM      4 C30  MOL A   1       8.388 -22.428 -11.348  1.00  0.00    -0.048 A 
ATOM      5 C31  MOL A   1       8.258 -22.937 -10.051  1.00  0.00     0.018 A 
ATOM      6 Br32 MOL A   1       9.714 -23.877  -9.241  1.00  0.00    -0.051 Br
ATOM      7 C33  MOL A   1       7.060 -22.766  -9.350  1.00  0.00    -0.043 A 
ENDROOT
BRANCH   1   8
ATOM      8  C6  MOL A   1       4.698 -21.840  -9.172  1.00  0.00     0.063 C 
BRANCH   8   9
ATOM      9  C5  MOL A   1       3.486 -22.335  -9.981  1.00  0.00     0.051 C 
BRANCH   9  12
ATOM     10  C1  MOL A   1      -0.267 -22.057  -8.977  1.00  0.00     0.006 C 
ATOM     11  N2  MOL A   1       0.965 -22.053  -9.752  1.00  0.00    -0.359 N 
ATOM     12  C3  MOL A   1       2.234 -22.337  -9.153  1.00  0.00     0.222 C 
ATOM     13  O4  MOL A   1       2.308 -22.594  -7.920  1.00  0.00    -0.275 OA
ENDBRANCH   9  12
ENDBRANCH   8   9
BRANCH   8  14
ATOM     14  N7  MOL A   1       4.563 -20.413  -8.861  1.00  0.00    -0.346 N 
ATOM     15  C8  MOL A   1       4.766 -19.889  -7.547  1.00  0.00     0.258 C 
ATOM     16  O9  MOL A   1       5.063 -20.659  -6.595  1.00  0.00    -0.271 OA
BRANCH  15  17
ATOM     17 C10  MOL A   1       4.642 -18.418  -7.290  1.00  0.00     0.167 C 
BRANCH  17  18
ATOM     18 O11  MOL A   1       5.889 -17.764  -7.516  1.00  0.00    -0.480 OA
BRANCH  18  19
ATOM     19 C12  MOL A   1       6.253 -17.276  -8.774  1.00  0.00     0.166 A 
ATOM     20 C13  MOL A   1       7.238 -17.925  -9.552  1.00  0.00     0.012 A 
ATOM     21 C21  MOL A   1       7.516 -17.446 -10.843  1.00  0.00    -0.054 A 
ATOM     22 C22  MOL A   1       6.864 -16.315 -11.335  1.00  0.00    -0.058 A 
ATOM     23 C23  MOL A   1       5.928 -15.647 -10.545  1.00  0.00    -0.016 A 
ATOM     24 C24  MOL A   1       5.618 -16.120  -9.257  1.00  0.00     0.161 A 
BRANCH  20  25
ATOM     25 C14  MOL A   1       8.005 -19.121  -9.033  1.00  0.00     0.028 C 
BRANCH  25  26
ATOM     26 N15  MOL A   1       9.459 -18.872  -9.104  1.00  0.00    -0.287 NA
ATOM     27 C16  MOL A   1      10.231 -20.043  -8.656  1.00  0.00     0.064 C 
ATOM     28 C17  MOL A   1      10.774 -19.313  -7.443  1.00  0.00     0.272 C 
ATOM     29 F18  MOL A   1      12.140 -19.094  -7.491  1.00  0.00    -0.204 F 
ATOM     30 F19  MOL A   1      10.330 -19.831  -6.236  1.00  0.00    -0.204 F 
ATOM     31 C20  MOL A   1       9.955 -18.134  -7.929  1.00  0.00     0.064 C 
ENDBRANCH  25  26
ENDBRANCH  20  25
BRANCH  24  32
ATOM     32 O25  MOL A   1       4.684 -15.477  -8.431  1.00  0.00    -0.493 OA
ATOM     33 C26  MOL A   1       3.598 -14.689  -8.905  1.00  0.00     0.078 C 
ENDBRANCH  24  32
ENDBRANCH  18  19
ENDBRANCH  17  18
ENDBRANCH  15  17
ENDBRANCH   8  14
ENDBRANCH   1   8
TORSDOF 10
ENDMDL
MODEL 286
REMARK VINA RESULT:    -7.186      9.423     12.902
REMARK INTER + INTRA:         -12.435
REMARK INTER:                 -10.263
REMARK INTRA:                  -2.172
REMARK UNBOUND:                -1.048
REMARK  10 active torsions:
REMARK  status: ('A' for Active; 'I' for Inactive)
REMARK   1   A    between atoms:  C27_1   and   C6_8  
REMARK   2   A    between atoms:  C6_8    and   C5_9  
REMARK   3   A    between atoms:  C5_9    and   C3_12 
REMARK   4   A    between atoms:  C6_8    and   N7_14 
REMARK   5   A    between atoms:  C8_15   and  C10_17 
REMARK   6   A    between atoms: C10_17   and  O11_18 
REMARK   7   A    between atoms: O11_18   and  C12_19 
REMARK   8   A    between atoms: C13_20   and  C14_25 
REMARK   9   A    between atoms: C14_25   and  N15_26 
REMARK   10  A    between atoms: C24_24   and  O25_32 
ROOT
ATOM      1 C27  MOL A   1      17.636 -18.677  -5.548  1.00  0.00    -0.024 A 
ATOM      2 C28  MOL A   1      18.909 -18.549  -6.130  1.00  0.00    -0.057 A 
ATOM      3 C29  MOL A   1      19.444 -19.589  -6.899  1.00  0.00    -0.061 A 
ATOM      4 C30  MOL A   1      18.715 -20.765  -7.092  1.00  0.00    -0.048 A 
ATOM      5 C31  MOL A   1      17.445 -20.904  -6.520  1.00  0.00     0.018 A 
ATOM      6 Br32 MOL A   1      16.438 -22.506  -6.803  1.00  0.00    -0.051 Br
ATOM      7 C33  MOL A   1      16.909 -19.869  -5.747  1.00  0.00    -0.043 A 
ENDROOT
BRANCH   1   8
ATOM      8  C6  MOL A   1      17.095 -17.578  -4.659  1.00  0.00     0.063 C 
BRANCH   8   9
ATOM      9  C5  MOL A   1      16.561 -18.177  -3.345  1.00  0.00     0.051 C 
BRANCH   9  12
ATOM     10  C1  MOL A   1      17.435 -14.976  -1.304  1.00  0.00     0.006 C 
ATOM     11  N2  MOL A   1      17.358 -15.962  -2.372  1.00  0.00    -0.359 N 
ATOM     12  C3  MOL A   1      16.629 -17.185  -2.220  1.00  0.00     0.222 C 
ATOM     13  O4  MOL A   1      16.035 -17.436  -1.137  1.00  0.00    -0.275 OA
ENDBRANCH   9  12
ENDBRANCH   8   9
BRANCH   8  14
ATOM     14  N7  MOL A   1      16.039 -16.835  -5.355  1.00  0.00    -0.346 N 
ATOM     15  C8  MOL A   1      16.316 -15.729  -6.216  1.00  0.00     0.258 C 
ATOM     16  O9  MOL A   1      17.503 -15.346  -6.396  1.00  0.00    -0.271 OA
BRANCH  15  17
ATOM     17 C10  MOL A   1      15.200 -15.020  -6.923  1.00  0.00     0.167 C 
BRANCH  17  18
ATOM     18 O11  MOL A   1      14.964 -15.612  -8.199  1.00  0.00    -0.480 OA
BRANCH  18  19
ATOM     19 C12  MOL A   1      14.791 -16.989  -8.357  1.00  0.00     0.166 A 
ATOM     20 C13  MOL A   1      15.811 -17.795  -8.912  1.00  0.00     0.012 A 
ATOM     21 C21  MOL A   1      15.625 -19.186  -8.979  1.00  0.00    -0.054 A 
ATOM     22 C22  MOL A   1      14.430 -19.763  -8.548  1.00  0.00    -0.058 A 
ATOM     23 C23  MOL A   1      13.405 -18.960  -8.047  1.00  0.00    -0.016 A 
ATOM     24 C24  MOL A   1      13.576 -17.566  -7.952  1.00  0.00     0.161 A 
BRANCH  20  25
ATOM     25 C14  MOL A   1      17.098 -17.201  -9.439  1.00  0.00     0.028 C 
BRANCH  25  26
ATOM     26 N15  MOL A   1      17.354 -17.663 -10.818  1.00  0.00    -0.287 NA
ATOM     27 C16  MOL A   1      18.400 -18.699 -10.857  1.00  0.00     0.064 C 
ATOM     28 C17  MOL A   1      19.359 -17.807 -11.619  1.00  0.00     0.272 C 
ATOM     29 F18  MOL A   1      19.621 -18.243 -12.906  1.00  0.00    -0.204 F 
ATOM     30 F19  MOL A   1      20.493 -17.465 -10.901  1.00  0.00    -0.204 F 
ATOM     31 C20  MOL A   1      18.263 -16.762 -11.547  1.00  0.00     0.064 C 
ENDBRANCH  25  26
ENDBRANCH  20  25
BRANCH  24  32
ATOM     32 O25  MOL A   1      12.570 -16.724  -7.455  1.00  0.00    -0.493 OA
ATOM     33 C26  MOL A   1      11.199 -17.089  -7.340  1.00  0.00     0.078 C 
ENDBRANCH  24  32
ENDBRANCH  18  19
ENDBRANCH  17  18
ENDBRANCH  15  17
ENDBRANCH   8  14
ENDBRANCH   1   8
TORSDOF 10
ENDMDL
MODEL 287
REMARK VINA RESULT:    -7.186     10.588     13.789
REMARK INTER + INTRA:         -12.435
REMARK INTER:                 -10.781
REMARK INTRA:                  -1.654
REMARK UNBOUND:                -1.048
REMARK  10 active torsions:
REMARK  status: ('A' for Active; 'I' for Inactive)
REMARK   1   A    between atoms:  C27_1   and   C6_8  
REMARK   2   A    between atoms:  C6_8    and   C5_9  
REMARK   3   A    between atoms:  C5_9    and   C3_12 
REMARK   4   A    between atoms:  C6_8    and   N7_14 
REMARK   5   A    between atoms:  C8_15   and  C10_17 
REMARK   6   A    between atoms: C10_17   and  O11_18 
REMARK   7   A    between atoms: O11_18   and  C12_19 
REMARK   8   A    between atoms: C13_20   and  C14_25 
REMARK   9   A    between atoms: C14_25   and  N15_26 
REMARK   10  A    between atoms: C24_24   and  O25_32 
ROOT
ATOM      1 C27  MOL A   1      15.650 -18.390  -0.421  1.00  0.00    -0.024 A 
ATOM      2 C28  MOL A   1      16.108 -17.930   0.827  1.00  0.00    -0.057 A 
ATOM      3 C29  MOL A   1      15.830 -18.652   1.993  1.00  0.00    -0.061 A 
ATOM      4 C30  MOL A   1      15.093 -19.837   1.925  1.00  0.00    -0.048 A 
ATOM      5 C31  MOL A   1      14.634 -20.307   0.689  1.00  0.00     0.018 A 
ATOM      6 Br32 MOL A   1      13.643 -21.942   0.594  1.00  0.00    -0.051 Br
ATOM      7 C33  MOL A   1      14.905 -19.586  -0.478  1.00  0.00    -0.043 A 
ENDROOT
BRANCH   1   8
ATOM      8  C6  MOL A   1      15.892 -17.566  -1.667  1.00  0.00     0.063 C 
BRANCH   8   9
ATOM      9  C5  MOL A   1      14.621 -16.780  -2.035  1.00  0.00     0.051 C 
BRANCH   9  12
ATOM     10  C1  MOL A   1      14.979 -13.303  -0.315  1.00  0.00     0.006 C 
ATOM     11  N2  MOL A   1      14.786 -14.729  -0.533  1.00  0.00    -0.359 N 
ATOM     12  C3  MOL A   1      14.812 -15.303  -1.844  1.00  0.00     0.222 C 
ATOM     13  O4  MOL A   1      15.000 -14.568  -2.852  1.00  0.00    -0.275 OA
ENDBRANCH   9  12
ENDBRANCH   8   9
BRANCH   8  14
ATOM     14  N7  MOL A   1      16.303 -18.432  -2.777  1.00  0.00    -0.346 N 
ATOM     15  C8  MOL A   1      17.209 -18.001  -3.795  1.00  0.00     0.258 C 
ATOM     16  O9  MOL A   1      17.682 -16.834  -3.771  1.00  0.00    -0.271 OA
BRANCH  15  17
ATOM     17 C10  MOL A   1      17.616 -18.936  -4.893  1.00  0.00     0.167 C 
BRANCH  17  18
ATOM     18 O11  MOL A   1      18.507 -18.287  -5.797  1.00  0.00    -0.480 OA
BRANCH  18  19
ATOM     19 C12  MOL A   1      18.320 -18.328  -7.181  1.00  0.00     0.166 A 
ATOM     20 C13  MOL A   1      17.486 -17.393  -7.835  1.00  0.00     0.012 A 
ATOM     21 C21  MOL A   1      17.389 -17.422  -9.236  1.00  0.00    -0.054 A 
ATOM     22 C22  MOL A   1      18.069 -18.392  -9.972  1.00  0.00    -0.058 A 
ATOM     23 C23  MOL A   1      18.852 -19.346  -9.321  1.00  0.00    -0.016 A 
ATOM     24 C24  MOL A   1      18.980 -19.324  -7.920  1.00  0.00     0.161 A 
BRANCH  20  25
ATOM     25 C14  MOL A   1      16.691 -16.361  -7.066  1.00  0.00     0.028 C 
BRANCH  25  26
ATOM     26 N15  MOL A   1      15.260 -16.726  -7.039  1.00  0.00    -0.287 NA
ATOM     27 C16  MOL A   1      14.447 -15.789  -7.833  1.00  0.00     0.064 C 
ATOM     28 C17  MOL A   1      13.719 -15.269  -6.609  1.00  0.00     0.272 C 
ATOM     29 F18  MOL A   1      12.373 -15.588  -6.585  1.00  0.00    -0.204 F 
ATOM     30 F19  MOL A   1      13.986 -13.939  -6.325  1.00  0.00    -0.204 F 
ATOM     31 C20  MOL A   1      14.584 -16.237  -5.825  1.00  0.00     0.064 C 
ENDBRANCH  25  26
ENDBRANCH  20  25
BRANCH  24  32
ATOM     32 O25  MOL A   1      19.757 -20.264  -7.228  1.00  0.00    -0.493 OA
ATOM     33 C26  MOL A   1      19.828 -21.648  -7.555  1.00  0.00     0.078 C 
ENDBRANCH  24  32
ENDBRANCH  18  19
ENDBRANCH  17  18
ENDBRANCH  15  17
ENDBRANCH   8  14
ENDBRANCH   1   8
TORSDOF 10
ENDMDL
MODEL 288
REMARK VINA RESULT:    -7.186      5.202      8.561
REMARK INTER + INTRA:         -12.435
REMARK INTER:                 -11.088
REMARK INTRA:                  -1.348
REMARK UNBOUND:                -1.048
REMARK  10 active torsions:
REMARK  status: ('A' for Active; 'I' for Inactive)
REMARK   1   A    between atoms:  C27_1   and   C6_8  
REMARK   2   A    between atoms:  C6_8    and   C5_9  
REMARK   3   A    between atoms:  C5_9    and   C3_12 
REMARK   4   A    between atoms:  C6_8    and   N7_14 
REMARK   5   A    between atoms:  C8_15   and  C10_17 
REMARK   6   A    between atoms: C10_17   and  O11_18 
REMARK   7   A    between atoms: O11_18   and  C12_19 
REMARK   8   A    between atoms: C13_20   and  C14_25 
REMARK   9   A    between atoms: C14_25   and  N15_26 
REMARK   10  A    between atoms: C24_24   and  O25_32 
ROOT
ATOM      1 C27  MOL A   1      14.095 -17.193  -7.278  1.00  0.00    -0.024 A 
ATOM      2 C28  MOL A   1      14.137 -16.210  -8.284  1.00  0.00    -0.057 A 
ATOM      3 C29  MOL A   1      14.269 -14.858  -7.948  1.00  0.00    -0.061 A 
ATOM      4 C30  MOL A   1      14.359 -14.475  -6.607  1.00  0.00    -0.048 A 
ATOM      5 C31  MOL A   1      14.322 -15.442  -5.597  1.00  0.00     0.018 A 
ATOM      6 Br32 MOL A   1      14.468 -14.918  -3.762  1.00  0.00    -0.051 Br
ATOM      7 C33  MOL A   1      14.185 -16.794  -5.929  1.00  0.00    -0.043 A 
ENDROOT
BRANCH   1   8
ATOM      8  C6  MOL A   1      13.879 -18.645  -7.646  1.00  0.00     0.063 C 
BRANCH   8   9
ATOM      9  C5  MOL A   1      15.089 -19.173  -8.437  1.00  0.00     0.051 C 
BRANCH   9  12
ATOM     10  C1  MOL A   1      17.750 -19.649  -5.633  1.00  0.00     0.006 C 
ATOM     11  N2  MOL A   1      16.525 -19.746  -6.414  1.00  0.00    -0.359 N 
ATOM     12  C3  MOL A   1      16.361 -19.044  -7.650  1.00  0.00     0.222 C 
ATOM     13  O4  MOL A   1      17.289 -18.311  -8.089  1.00  0.00    -0.275 OA
ENDBRANCH   9  12
ENDBRANCH   8   9
BRANCH   8  14
ATOM     14  N7  MOL A   1      12.646 -18.793  -8.427  1.00  0.00    -0.346 N 
ATOM     15  C8  MOL A   1      11.807 -19.946  -8.328  1.00  0.00     0.258 C 
ATOM     16  O9  MOL A   1      12.117 -20.892  -7.556  1.00  0.00    -0.271 OA
BRANCH  15  17
ATOM     17 C10  MOL A   1      10.544 -20.035  -9.130  1.00  0.00     0.167 C 
BRANCH  17  18
ATOM     18 O11  MOL A   1       9.585 -20.850  -8.461  1.00  0.00    -0.480 OA
BRANCH  18  19
ATOM     19 C12  MOL A   1       8.451 -21.346  -9.111  1.00  0.00     0.166 A 
ATOM     20 C13  MOL A   1       7.281 -20.562  -9.239  1.00  0.00     0.012 A 
ATOM     21 C21  MOL A   1       6.193 -21.070  -9.968  1.00  0.00    -0.054 A 
ATOM     22 C22  MOL A   1       6.245 -22.350 -10.519  1.00  0.00    -0.058 A 
ATOM     23 C23  MOL A   1       7.382 -23.141 -10.349  1.00  0.00    -0.016 A 
ATOM     24 C24  MOL A   1       8.492 -22.646  -9.639  1.00  0.00     0.161 A 
BRANCH  20  25
ATOM     25 C14  MOL A   1       7.167 -19.191  -8.610  1.00  0.00     0.028 C 
BRANCH  25  26
ATOM     26 N15  MOL A   1       6.693 -18.206  -9.603  1.00  0.00    -0.287 NA
ATOM     27 C16  MOL A   1       7.811 -17.624 -10.365  1.00  0.00     0.064 C 
ATOM     28 C17  MOL A   1       7.589 -16.244  -9.779  1.00  0.00     0.272 C 
ATOM     29 F18  MOL A   1       7.164 -15.308 -10.706  1.00  0.00    -0.204 F 
ATOM     30 F19  MOL A   1       8.628 -15.805  -8.974  1.00  0.00    -0.204 F 
ATOM     31 C20  MOL A   1       6.454 -16.883  -9.002  1.00  0.00     0.064 C 
ENDBRANCH  25  26
ENDBRANCH  20  25
BRANCH  24  32
ATOM     32 O25  MOL A   1       9.652 -23.409  -9.445  1.00  0.00    -0.493 OA
ATOM     33 C26  MOL A   1      10.441 -23.958 -10.495  1.00  0.00     0.078 C 
ENDBRANCH  24  32
ENDBRANCH  18  19
ENDBRANCH  17  18
ENDBRANCH  15  17
ENDBRANCH   8  14
ENDBRANCH   1   8
TORSDOF 10
ENDMDL
MODEL 289
REMARK VINA RESULT:    -7.186      5.050      9.769
REMARK INTER + INTRA:         -12.435
REMARK INTER:                 -11.325
REMARK INTRA:                  -1.110
REMARK UNBOUND:                -1.048
REMARK  10 active torsions:
REMARK  status: ('A' for Active; 'I' for Inactive)
REMARK   1   A    between atoms:  C27_1   and   C6_8  
REMARK   2   A    between atoms:  C6_8    and   C5_9  
REMARK   3   A    between atoms:  C5_9    and   C3_12 
REMARK   4   A    between atoms:  C6_8    and   N7_14 
REMARK   5   A    between atoms:  C8_15   and  C10_17 
REMARK   6   A    between atoms: C10_17   and  O11_18 
REMARK   7   A    between atoms: O11_18   and  C12_19 
REMARK   8   A    between atoms: C13_20   and  C14_25 
REMARK   9   A    between atoms: C14_25   and  N15_26 
REMARK   10  A    between atoms: C24_24   and  O25_32 
ROOT
ATOM      1 C27  MOL A   1       7.164 -17.555  -9.180  1.00  0.00    -0.024 A 
ATOM      2 C28  MOL A   1       6.411 -17.408  -8.001  1.00  0.00    -0.057 A 
ATOM      3 C29  MOL A   1       5.403 -16.441  -7.921  1.00  0.00    -0.061 A 
ATOM      4 C30  MOL A   1       5.137 -15.613  -9.015  1.00  0.00    -0.048 A 
ATOM      5 C31  MOL A   1       5.877 -15.751 -10.195  1.00  0.00     0.018 A 
ATOM      6 Br32 MOL A   1       5.498 -14.631 -11.699  1.00  0.00    -0.051 Br
ATOM      7 C33  MOL A   1       6.889 -16.713 -10.276  1.00  0.00    -0.043 A 
ENDROOT
BRANCH   1   8
ATOM      8  C6  MOL A   1       8.301 -18.553  -9.233  1.00  0.00     0.063 C 
BRANCH   8   9
ATOM      9  C5  MOL A   1       7.888 -19.859  -8.530  1.00  0.00     0.051 C 
BRANCH   9  12
ATOM     10  C1  MOL A   1       5.064 -21.929 -10.238  1.00  0.00     0.006 C 
ATOM     11  N2  MOL A   1       5.779 -21.039  -9.334  1.00  0.00    -0.359 N 
ATOM     12  C3  MOL A   1       7.182 -20.791  -9.472  1.00  0.00     0.222 C 
ATOM     13  O4  MOL A   1       7.836 -21.355 -10.392  1.00  0.00    -0.275 OA
ENDBRANCH   9  12
ENDBRANCH   8   9
BRANCH   8  14
ATOM     14  N7  MOL A   1       9.502 -17.988  -8.609  1.00  0.00    -0.346 N 
ATOM     15  C8  MOL A   1      10.823 -18.353  -9.015  1.00  0.00     0.258 C 
ATOM     16  O9  MOL A   1      10.995 -19.196  -9.935  1.00  0.00    -0.271 OA
BRANCH  15  17
ATOM     17 C10  MOL A   1      12.018 -17.725  -8.362  1.00  0.00     0.167 C 
BRANCH  17  18
ATOM     18 O11  MOL A   1      13.220 -18.329  -8.834  1.00  0.00    -0.480 OA
BRANCH  18  19
ATOM     19 C12  MOL A   1      14.221 -18.768  -7.964  1.00  0.00     0.166 A 
ATOM     20 C13  MOL A   1      15.299 -17.926  -7.605  1.00  0.00     0.012 A 
ATOM     21 C21  MOL A   1      16.240 -18.379  -6.666  1.00  0.00    -0.054 A 
ATOM     22 C22  MOL A   1      16.141 -19.663  -6.129  1.00  0.00    -0.058 A 
ATOM     23 C23  MOL A   1      15.106 -20.510  -6.522  1.00  0.00    -0.016 A 
ATOM     24 C24  MOL A   1      14.140 -20.071  -7.446  1.00  0.00     0.161 A 
BRANCH  20  25
ATOM     25 C14  MOL A   1      15.468 -16.548  -8.207  1.00  0.00     0.028 C 
BRANCH  25  26
ATOM     26 N15  MOL A   1      15.512 -15.523  -7.144  1.00  0.00    -0.287 NA
ATOM     27 C16  MOL A   1      14.628 -15.871  -6.019  1.00  0.00     0.064 C 
ATOM     28 C17  MOL A   1      13.708 -14.696  -6.283  1.00  0.00     0.272 C 
ATOM     29 F18  MOL A   1      13.727 -13.740  -5.282  1.00  0.00    -0.204 F 
ATOM     30 F19  MOL A   1      12.434 -15.064  -6.683  1.00  0.00    -0.204 F 
ATOM     31 C20  MOL A   1      14.634 -14.378  -7.440  1.00  0.00     0.064 C 
ENDBRANCH  25  26
ENDBRANCH  20  25
BRANCH  24  32
ATOM     32 O25  MOL A   1      13.084 -20.892  -7.868  1.00  0.00    -0.493 OA
ATOM     33 C26  MOL A   1      12.026 -21.340  -7.027  1.00  0.00     0.078 C 
ENDBRANCH  24  32
ENDBRANCH  18  19
ENDBRANCH  17  18
ENDBRANCH  15  17
ENDBRANCH   8  14
ENDBRANCH   1   8
TORSDOF 10
ENDMDL
MODEL 290
REMARK VINA RESULT:    -7.183      8.374     12.322
REMARK INTER + INTRA:         -12.431
REMARK INTER:                 -10.572
REMARK INTRA:                  -1.858
REMARK UNBOUND:                -1.048
REMARK  10 active torsions:
REMARK  status: ('A' for Active; 'I' for Inactive)
REMARK   1   A    between atoms:  C27_1   and   C6_8  
REMARK   2   A    between atoms:  C6_8    and   C5_9  
REMARK   3   A    between atoms:  C5_9    and   C3_12 
REMARK   4   A    between atoms:  C6_8    and   N7_14 
REMARK   5   A    between atoms:  C8_15   and  C10_17 
REMARK   6   A    between atoms: C10_17   and  O11_18 
REMARK   7   A    between atoms: O11_18   and  C12_19 
REMARK   8   A    between atoms: C13_20   and  C14_25 
REMARK   9   A    between atoms: C14_25   and  N15_26 
REMARK   10  A    between atoms: C24_24   and  O25_32 
ROOT
ATOM      1 C27  MOL A   1      12.370 -17.736  -8.327  1.00  0.00    -0.024 A 
ATOM      2 C28  MOL A   1      11.694 -17.008  -7.329  1.00  0.00    -0.057 A 
ATOM      3 C29  MOL A   1      10.312 -16.807  -7.413  1.00  0.00    -0.061 A 
ATOM      4 C30  MOL A   1       9.592 -17.329  -8.491  1.00  0.00    -0.048 A 
ATOM      5 C31  MOL A   1      10.251 -18.057  -9.488  1.00  0.00     0.018 A 
ATOM      6 Br32 MOL A   1       9.261 -18.789 -10.952  1.00  0.00    -0.051 Br
ATOM      7 C33  MOL A   1      11.633 -18.255  -9.411  1.00  0.00    -0.043 A 
ENDROOT
BRANCH   1   8
ATOM      8  C6  MOL A   1      13.874 -17.886  -8.266  1.00  0.00     0.063 C 
BRANCH   8   9
ATOM      9  C5  MOL A   1      14.261 -19.370  -8.403  1.00  0.00     0.051 C 
BRANCH   9  12
ATOM     10  C1  MOL A   1      17.610 -20.894  -9.682  1.00  0.00     0.006 C 
ATOM     11  N2  MOL A   1      16.361 -20.700  -8.960  1.00  0.00    -0.359 N 
ATOM     12  C3  MOL A   1      15.550 -19.536  -9.155  1.00  0.00     0.222 C 
ATOM     13  O4  MOL A   1      15.914 -18.640  -9.965  1.00  0.00    -0.275 OA
ENDBRANCH   9  12
ENDBRANCH   8   9
BRANCH   8  14
ATOM     14  N7  MOL A   1      14.391 -17.331  -7.011  1.00  0.00    -0.346 N 
ATOM     15  C8  MOL A   1      15.433 -16.354  -6.973  1.00  0.00     0.258 C 
ATOM     16  O9  MOL A   1      15.955 -15.941  -8.042  1.00  0.00    -0.271 OA
BRANCH  15  17
ATOM     17 C10  MOL A   1      15.906 -15.800  -5.662  1.00  0.00     0.167 C 
BRANCH  17  18
ATOM     18 O11  MOL A   1      14.934 -16.029  -4.644  1.00  0.00    -0.480 OA
BRANCH  18  19
ATOM     19 C12  MOL A   1      15.293 -16.413  -3.350  1.00  0.00     0.166 A 
ATOM     20 C13  MOL A   1      15.549 -17.767  -3.033  1.00  0.00     0.012 A 
ATOM     21 C21  MOL A   1      15.984 -18.098  -1.739  1.00  0.00    -0.054 A 
ATOM     22 C22  MOL A   1      16.116 -17.111  -0.763  1.00  0.00    -0.058 A 
ATOM     23 C23  MOL A   1      15.815 -15.782  -1.063  1.00  0.00    -0.016 A 
ATOM     24 C24  MOL A   1      15.397 -15.424  -2.358  1.00  0.00     0.161 A 
BRANCH  20  25
ATOM     25 C14  MOL A   1      15.365 -18.871  -4.051  1.00  0.00     0.028 C 
BRANCH  25  26
ATOM     26 N15  MOL A   1      16.617 -19.639  -4.210  1.00  0.00    -0.287 NA
ATOM     27 C16  MOL A   1      17.750 -18.762  -4.553  1.00  0.00     0.064 C 
ATOM     28 C17  MOL A   1      17.903 -19.377  -5.931  1.00  0.00     0.272 C 
ATOM     29 F18  MOL A   1      19.083 -20.081  -6.097  1.00  0.00    -0.204 F 
ATOM     30 F19  MOL A   1      17.622 -18.502  -6.967  1.00  0.00    -0.204 F 
ATOM     31 C20  MOL A   1      16.726 -20.252  -5.545  1.00  0.00     0.064 C 
ENDBRANCH  25  26
ENDBRANCH  20  25
BRANCH  24  32
ATOM     32 O25  MOL A   1      15.083 -14.100  -2.701  1.00  0.00    -0.493 OA
ATOM     33 C26  MOL A   1      13.763 -13.616  -2.921  1.00  0.00     0.078 C 
ENDBRANCH  24  32
ENDBRANCH  18  19
ENDBRANCH  17  18
ENDBRANCH  15  17
ENDBRANCH   8  14
ENDBRANCH   1   8
TORSDOF 10
ENDMDL
MODEL 291
REMARK VINA RESULT:    -7.182      5.812     10.655
REMARK INTER + INTRA:         -12.429
REMARK INTER:                 -10.614
REMARK INTRA:                  -1.814
REMARK UNBOUND:                -1.048
REMARK  10 active torsions:
REMARK  status: ('A' for Active; 'I' for Inactive)
REMARK   1   A    between atoms:  C27_1   and   C6_8  
REMARK   2   A    between atoms:  C6_8    and   C5_9  
REMARK   3   A    between atoms:  C5_9    and   C3_12 
REMARK   4   A    between atoms:  C6_8    and   N7_14 
REMARK   5   A    between atoms:  C8_15   and  C10_17 
REMARK   6   A    between atoms: C10_17   and  O11_18 
REMARK   7   A    between atoms: O11_18   and  C12_19 
REMARK   8   A    between atoms: C13_20   and  C14_25 
REMARK   9   A    between atoms: C14_25   and  N15_26 
REMARK   10  A    between atoms: C24_24   and  O25_32 
ROOT
ATOM      1 C27  MOL A   1       8.609 -20.331  -9.623  1.00  0.00    -0.024 A 
ATOM      2 C28  MOL A   1       7.251 -20.686  -9.529  1.00  0.00    -0.057 A 
ATOM      3 C29  MOL A   1       6.871 -22.032  -9.519  1.00  0.00    -0.061 A 
ATOM      4 C30  MOL A   1       7.840 -23.036  -9.601  1.00  0.00    -0.048 A 
ATOM      5 C31  MOL A   1       9.194 -22.697  -9.692  1.00  0.00     0.018 A 
ATOM      6 Br32 MOL A   1      10.522 -24.071  -9.783  1.00  0.00    -0.051 Br
ATOM      7 C33  MOL A   1       9.578 -21.352  -9.708  1.00  0.00    -0.043 A 
ENDROOT
BRANCH   1   8
ATOM      8  C6  MOL A   1       9.007 -18.874  -9.708  1.00  0.00     0.063 C 
BRANCH   8   9
ATOM      9  C5  MOL A   1       8.580 -18.288 -11.065  1.00  0.00     0.051 C 
BRANCH   9  12
ATOM     10  C1  MOL A   1       5.874 -15.589 -11.820  1.00  0.00     0.006 C 
ATOM     11  N2  MOL A   1       6.789 -16.713 -11.960  1.00  0.00    -0.359 N 
ATOM     12  C3  MOL A   1       7.655 -17.118 -10.894  1.00  0.00     0.222 C 
ATOM     13  O4  MOL A   1       7.643 -16.494  -9.798  1.00  0.00    -0.275 OA
ENDBRANCH   9  12
ENDBRANCH   8   9
BRANCH   8  14
ATOM     14  N7  MOL A   1      10.454 -18.730  -9.516  1.00  0.00    -0.346 N 
ATOM     15  C8  MOL A   1      11.020 -17.778  -8.612  1.00  0.00     0.258 C 
ATOM     16  O9  MOL A   1      10.273 -17.012  -7.947  1.00  0.00    -0.271 OA
BRANCH  15  17
ATOM     17 C10  MOL A   1      12.506 -17.691  -8.434  1.00  0.00     0.167 C 
BRANCH  17  18
ATOM     18 O11  MOL A   1      12.835 -17.525  -7.057  1.00  0.00    -0.480 OA
BRANCH  18  19
ATOM     19 C12  MOL A   1      14.157 -17.531  -6.605  1.00  0.00     0.166 A 
ATOM     20 C13  MOL A   1      14.787 -18.732  -6.203  1.00  0.00     0.012 A 
ATOM     21 C21  MOL A   1      16.141 -18.704  -5.831  1.00  0.00    -0.054 A 
ATOM     22 C22  MOL A   1      16.846 -17.500  -5.811  1.00  0.00    -0.058 A 
ATOM     23 C23  MOL A   1      16.208 -16.309  -6.160  1.00  0.00    -0.016 A 
ATOM     24 C24  MOL A   1      14.858 -16.315  -6.556  1.00  0.00     0.161 A 
BRANCH  20  25
ATOM     25 C14  MOL A   1      14.041 -20.047  -6.161  1.00  0.00     0.028 C 
BRANCH  25  26
ATOM     26 N15  MOL A   1      14.238 -20.792  -7.421  1.00  0.00    -0.287 NA
ATOM     27 C16  MOL A   1      13.014 -21.505  -7.825  1.00  0.00     0.064 C 
ATOM     28 C17  MOL A   1      13.651 -22.865  -7.623  1.00  0.00     0.272 C 
ATOM     29 F18  MOL A   1      13.821 -23.580  -8.796  1.00  0.00    -0.204 F 
ATOM     30 F19  MOL A   1      13.082 -23.600  -6.595  1.00  0.00    -0.204 F 
ATOM     31 C20  MOL A   1      14.887 -22.096  -7.200  1.00  0.00     0.064 C 
ENDBRANCH  25  26
ENDBRANCH  20  25
BRANCH  24  32
ATOM     32 O25  MOL A   1      14.180 -15.140  -6.913  1.00  0.00    -0.493 OA
ATOM     33 C26  MOL A   1      14.626 -14.223  -7.907  1.00  0.00     0.078 C 
ENDBRANCH  24  32
ENDBRANCH  18  19
ENDBRANCH  17  18
ENDBRANCH  15  17
ENDBRANCH   8  14
ENDBRANCH   1   8
TORSDOF 10
ENDMDL
MODEL 292
REMARK VINA RESULT:    -7.181      5.611     10.015
REMARK INTER + INTRA:         -12.428
REMARK INTER:                 -11.480
REMARK INTRA:                  -0.948
REMARK UNBOUND:                -1.048
REMARK  10 active torsions:
REMARK  status: ('A' for Active; 'I' for Inactive)
REMARK   1   A    between atoms:  C27_1   and   C6_8  
REMARK   2   A    between atoms:  C6_8    and   C5_9  
REMARK   3   A    between atoms:  C5_9    and   C3_12 
REMARK   4   A    between atoms:  C6_8    and   N7_14 
REMARK   5   A    between atoms:  C8_15   and  C10_17 
REMARK   6   A    between atoms: C10_17   and  O11_18 
REMARK   7   A    between atoms: O11_18   and  C12_19 
REMARK   8   A    between atoms: C13_20   and  C14_25 
REMARK   9   A    between atoms: C14_25   and  N15_26 
REMARK   10  A    between atoms: C24_24   and  O25_32 
ROOT
ATOM      1 C27  MOL A   1       8.079 -20.037  -9.357  1.00  0.00    -0.024 A 
ATOM      2 C28  MOL A   1       6.777 -20.165  -9.875  1.00  0.00    -0.057 A 
ATOM      3 C29  MOL A   1       6.326 -21.399 -10.357  1.00  0.00    -0.061 A 
ATOM      4 C30  MOL A   1       7.168 -22.514 -10.326  1.00  0.00    -0.048 A 
ATOM      5 C31  MOL A   1       8.464 -22.400  -9.811  1.00  0.00     0.018 A 
ATOM      6 Br32 MOL A   1       9.609 -23.932  -9.750  1.00  0.00    -0.051 Br
ATOM      7 C33  MOL A   1       8.921 -21.167  -9.334  1.00  0.00    -0.043 A 
ENDROOT
BRANCH   1   8
ATOM      8  C6  MOL A   1       8.584 -18.683  -8.906  1.00  0.00     0.063 C 
BRANCH   8   9
ATOM      9  C5  MOL A   1       7.641 -17.574  -9.408  1.00  0.00     0.051 C 
BRANCH   9  12
ATOM     10  C1  MOL A   1       5.173 -16.095  -6.783  1.00  0.00     0.006 C 
ATOM     11  N2  MOL A   1       5.725 -16.867  -7.886  1.00  0.00    -0.359 N 
ATOM     12  C3  MOL A   1       7.100 -16.756  -8.272  1.00  0.00     0.222 C 
ATOM     13  O4  MOL A   1       7.868 -15.969  -7.655  1.00  0.00    -0.275 OA
ENDBRANCH   9  12
ENDBRANCH   8   9
BRANCH   8  14
ATOM     14  N7  MOL A   1       9.949 -18.461  -9.395  1.00  0.00    -0.346 N 
ATOM     15  C8  MOL A   1      11.023 -18.082  -8.532  1.00  0.00     0.258 C 
ATOM     16  O9  MOL A   1      10.819 -17.914  -7.301  1.00  0.00    -0.271 OA
BRANCH  15  17
ATOM     17 C10  MOL A   1      12.406 -17.893  -9.080  1.00  0.00     0.167 C 
BRANCH  17  18
ATOM     18 O11  MOL A   1      13.372 -17.973  -8.035  1.00  0.00    -0.480 OA
BRANCH  18  19
ATOM     19 C12  MOL A   1      14.701 -17.584  -8.223  1.00  0.00     0.166 A 
ATOM     20 C13  MOL A   1      15.130 -16.273  -7.913  1.00  0.00     0.012 A 
ATOM     21 C21  MOL A   1      16.491 -15.949  -8.042  1.00  0.00    -0.054 A 
ATOM     22 C22  MOL A   1      17.402 -16.892  -8.516  1.00  0.00    -0.058 A 
ATOM     23 C23  MOL A   1      16.968 -18.170  -8.869  1.00  0.00    -0.016 A 
ATOM     24 C24  MOL A   1      15.613 -18.525  -8.729  1.00  0.00     0.161 A 
BRANCH  20  25
ATOM     25 C14  MOL A   1      14.162 -15.208  -7.447  1.00  0.00     0.028 C 
BRANCH  25  26
ATOM     26 N15  MOL A   1      13.560 -15.588  -6.153  1.00  0.00    -0.287 NA
ATOM     27 C16  MOL A   1      13.495 -14.443  -5.229  1.00  0.00     0.064 C 
ATOM     28 C17  MOL A   1      14.487 -15.068  -4.268  1.00  0.00     0.272 C 
ATOM     29 F18  MOL A   1      13.937 -15.408  -3.045  1.00  0.00    -0.204 F 
ATOM     30 F19  MOL A   1      15.683 -14.374  -4.173  1.00  0.00    -0.204 F 
ATOM     31 C20  MOL A   1      14.537 -16.221  -5.251  1.00  0.00     0.064 C 
ENDBRANCH  25  26
ENDBRANCH  20  25
BRANCH  24  32
ATOM     32 O25  MOL A   1      15.136 -19.798  -9.074  1.00  0.00    -0.493 OA
ATOM     33 C26  MOL A   1      15.928 -20.981  -9.075  1.00  0.00     0.078 C 
ENDBRANCH  24  32
ENDBRANCH  18  19
ENDBRANCH  17  18
ENDBRANCH  15  17
ENDBRANCH   8  14
ENDBRANCH   1   8
TORSDOF 10
ENDMDL
MODEL 293
REMARK VINA RESULT:    -7.178      5.463      9.838
REMARK INTER + INTRA:         -12.423
REMARK INTER:                 -11.158
REMARK INTRA:                  -1.265
REMARK UNBOUND:                -1.048
REMARK  10 active torsions:
REMARK  status: ('A' for Active; 'I' for Inactive)
REMARK   1   A    between atoms:  C27_1   and   C6_8  
REMARK   2   A    between atoms:  C6_8    and   C5_9  
REMARK   3   A    between atoms:  C5_9    and   C3_12 
REMARK   4   A    between atoms:  C6_8    and   N7_14 
REMARK   5   A    between atoms:  C8_15   and  C10_17 
REMARK   6   A    between atoms: C10_17   and  O11_18 
REMARK   7   A    between atoms: O11_18   and  C12_19 
REMARK   8   A    between atoms: C13_20   and  C14_25 
REMARK   9   A    between atoms: C14_25   and  N15_26 
REMARK   10  A    between atoms: C24_24   and  O25_32 
ROOT
ATOM      1 C27  MOL A   1       7.673 -18.837  -9.129  1.00  0.00    -0.024 A 
ATOM      2 C28  MOL A   1       7.771 -19.258 -10.468  1.00  0.00    -0.057 A 
ATOM      3 C29  MOL A   1       7.017 -20.344 -10.925  1.00  0.00    -0.061 A 
ATOM      4 C30  MOL A   1       6.160 -21.020 -10.052  1.00  0.00    -0.048 A 
ATOM      5 C31  MOL A   1       6.050 -20.609  -8.719  1.00  0.00     0.018 A 
ATOM      6 Br32 MOL A   1       4.860 -21.521  -7.531  1.00  0.00    -0.051 Br
ATOM      7 C33  MOL A   1       6.806 -19.527  -8.257  1.00  0.00    -0.043 A 
ENDROOT
BRANCH   1   8
ATOM      8  C6  MOL A   1       8.545 -17.708  -8.625  1.00  0.00     0.063 C 
BRANCH   8   9
ATOM      9  C5  MOL A   1       7.919 -16.351  -8.996  1.00  0.00     0.051 C 
BRANCH   9  12
ATOM     10  C1  MOL A   1       4.765 -16.196  -6.717  1.00  0.00     0.006 C 
ATOM     11  N2  MOL A   1       6.145 -16.284  -7.170  1.00  0.00    -0.359 N 
ATOM     12  C3  MOL A   1       6.485 -16.269  -8.561  1.00  0.00     0.222 C 
ATOM     13  O4  MOL A   1       5.577 -16.183  -9.433  1.00  0.00    -0.275 OA
ENDBRANCH   9  12
ENDBRANCH   8   9
BRANCH   8  14
ATOM     14  N7  MOL A   1       9.897 -17.823  -9.181  1.00  0.00    -0.346 N 
ATOM     15  C8  MOL A   1      11.067 -17.464  -8.442  1.00  0.00     0.258 C 
ATOM     16  O9  MOL A   1      10.964 -17.020  -7.268  1.00  0.00    -0.271 OA
BRANCH  15  17
ATOM     17 C10  MOL A   1      12.428 -17.626  -9.050  1.00  0.00     0.167 C 
BRANCH  17  18
ATOM     18 O11  MOL A   1      12.758 -19.007  -9.172  1.00  0.00    -0.480 OA
BRANCH  18  19
ATOM     19 C12  MOL A   1      12.936 -19.829  -8.056  1.00  0.00     0.166 A 
ATOM     20 C13  MOL A   1      14.078 -19.705  -7.232  1.00  0.00     0.012 A 
ATOM     21 C21  MOL A   1      14.178 -20.497  -6.076  1.00  0.00    -0.054 A 
ATOM     22 C22  MOL A   1      13.187 -21.429  -5.768  1.00  0.00    -0.058 A 
ATOM     23 C23  MOL A   1      12.086 -21.585  -6.610  1.00  0.00    -0.016 A 
ATOM     24 C24  MOL A   1      11.954 -20.789  -7.763  1.00  0.00     0.161 A 
BRANCH  20  25
ATOM     25 C14  MOL A   1      15.199 -18.743  -7.562  1.00  0.00     0.028 C 
BRANCH  25  26
ATOM     26 N15  MOL A   1      15.490 -17.874  -6.404  1.00  0.00    -0.287 NA
ATOM     27 C16  MOL A   1      15.249 -16.455  -6.717  1.00  0.00     0.064 C 
ATOM     28 C17  MOL A   1      16.717 -16.102  -6.589  1.00  0.00     0.272 C 
ATOM     29 F18  MOL A   1      16.997 -15.270  -5.518  1.00  0.00    -0.204 F 
ATOM     30 F19  MOL A   1      17.300 -15.699  -7.779  1.00  0.00    -0.204 F 
ATOM     31 C20  MOL A   1      16.927 -17.572  -6.283  1.00  0.00     0.064 C 
ENDBRANCH  25  26
ENDBRANCH  20  25
BRANCH  24  32
ATOM     32 O25  MOL A   1      10.863 -20.915  -8.635  1.00  0.00    -0.493 OA
ATOM     33 C26  MOL A   1      10.269 -22.154  -9.008  1.00  0.00     0.078 C 
ENDBRANCH  24  32
ENDBRANCH  18  19
ENDBRANCH  17  18
ENDBRANCH  15  17
ENDBRANCH   8  14
ENDBRANCH   1   8
TORSDOF 10
ENDMDL
MODEL 294
REMARK VINA RESULT:    -7.178      4.094      8.251
REMARK INTER + INTRA:         -12.423
REMARK INTER:                 -11.176
REMARK INTRA:                  -1.247
REMARK UNBOUND:                -1.048
REMARK  10 active torsions:
REMARK  status: ('A' for Active; 'I' for Inactive)
REMARK   1   A    between atoms:  C27_1   and   C6_8  
REMARK   2   A    between atoms:  C6_8    and   C5_9  
REMARK   3   A    between atoms:  C5_9    and   C3_12 
REMARK   4   A    between atoms:  C6_8    and   N7_14 
REMARK   5   A    between atoms:  C8_15   and  C10_17 
REMARK   6   A    between atoms: C10_17   and  O11_18 
REMARK   7   A    between atoms: O11_18   and  C12_19 
REMARK   8   A    between atoms: C13_20   and  C14_25 
REMARK   9   A    between atoms: C14_25   and  N15_26 
REMARK   10  A    between atoms: C24_24   and  O25_32 
ROOT
ATOM      1 C27  MOL A   1       4.237 -15.116  -9.026  1.00  0.00    -0.024 A 
ATOM      2 C28  MOL A   1       3.562 -15.555  -7.872  1.00  0.00    -0.057 A 
ATOM      3 C29  MOL A   1       2.211 -15.247  -7.683  1.00  0.00    -0.061 A 
ATOM      4 C30  MOL A   1       1.521 -14.500  -8.641  1.00  0.00    -0.048 A 
ATOM      5 C31  MOL A   1       2.179 -14.061  -9.795  1.00  0.00     0.018 A 
ATOM      6 Br32 MOL A   1       1.228 -13.057 -11.117  1.00  0.00    -0.051 Br
ATOM      7 C33  MOL A   1       3.531 -14.362  -9.985  1.00  0.00    -0.043 A 
ENDROOT
BRANCH   1   8
ATOM      8  C6  MOL A   1       5.716 -15.391  -9.189  1.00  0.00     0.063 C 
BRANCH   8   9
ATOM      9  C5  MOL A   1       6.195 -14.901 -10.567  1.00  0.00     0.051 C 
BRANCH   9  12
ATOM     10  C1  MOL A   1       7.568 -17.988 -12.507  1.00  0.00     0.006 C 
ATOM     11  N2  MOL A   1       7.448 -16.877 -11.573  1.00  0.00    -0.359 N 
ATOM     12  C3  MOL A   1       6.293 -16.032 -11.550  1.00  0.00     0.222 C 
ATOM     13  O4  MOL A   1       5.345 -16.234 -12.357  1.00  0.00    -0.275 OA
ENDBRANCH   9  12
ENDBRANCH   8   9
BRANCH   8  14
ATOM     14  N7  MOL A   1       5.988 -16.823  -9.027  1.00  0.00    -0.346 N 
ATOM     15  C8  MOL A   1       7.141 -17.314  -8.339  1.00  0.00     0.258 C 
ATOM     16  O9  MOL A   1       7.980 -16.511  -7.851  1.00  0.00    -0.271 OA
BRANCH  15  17
ATOM     17 C10  MOL A   1       7.357 -18.789  -8.179  1.00  0.00     0.167 C 
BRANCH  17  18
ATOM     18 O11  MOL A   1       7.828 -19.360  -9.398  1.00  0.00    -0.480 OA
BRANCH  18  19
ATOM     19 C12  MOL A   1       8.118 -20.721  -9.517  1.00  0.00     0.166 A 
ATOM     20 C13  MOL A   1       7.106 -21.660  -9.822  1.00  0.00     0.012 A 
ATOM     21 C21  MOL A   1       7.455 -23.008 -10.009  1.00  0.00    -0.054 A 
ATOM     22 C22  MOL A   1       8.776 -23.426  -9.849  1.00  0.00    -0.058 A 
ATOM     23 C23  MOL A   1       9.765 -22.506  -9.499  1.00  0.00    -0.016 A 
ATOM     24 C24  MOL A   1       9.442 -21.147  -9.325  1.00  0.00     0.161 A 
BRANCH  20  25
ATOM     25 C14  MOL A   1       5.654 -21.254  -9.951  1.00  0.00     0.028 C 
BRANCH  25  26
ATOM     26 N15  MOL A   1       4.806 -22.083  -9.070  1.00  0.00    -0.287 NA
ATOM     27 C16  MOL A   1       3.379 -21.759  -9.231  1.00  0.00     0.064 C 
ATOM     28 C17  MOL A   1       3.268 -21.214  -7.821  1.00  0.00     0.272 C 
ATOM     29 F18  MOL A   1       2.458 -21.973  -6.994  1.00  0.00    -0.204 F 
ATOM     30 F19  MOL A   1       3.007 -19.854  -7.768  1.00  0.00    -0.204 F 
ATOM     31 C20  MOL A   1       4.741 -21.549  -7.698  1.00  0.00     0.064 C 
ENDBRANCH  25  26
ENDBRANCH  20  25
BRANCH  24  32
ATOM     32 O25  MOL A   1      10.406 -20.192  -8.972  1.00  0.00    -0.493 OA
ATOM     33 C26  MOL A   1      10.894 -19.990  -7.650  1.00  0.00     0.078 C 
ENDBRANCH  24  32
ENDBRANCH  18  19
ENDBRANCH  17  18
ENDBRANCH  15  17
ENDBRANCH   8  14
ENDBRANCH   1   8
TORSDOF 10
ENDMDL
MODEL 295
REMARK VINA RESULT:    -7.178      5.952     10.703
REMARK INTER + INTRA:         -12.423
REMARK INTER:                 -10.860
REMARK INTRA:                  -1.563
REMARK UNBOUND:                -1.048
REMARK  10 active torsions:
REMARK  status: ('A' for Active; 'I' for Inactive)
REMARK   1   A    between atoms:  C27_1   and   C6_8  
REMARK   2   A    between atoms:  C6_8    and   C5_9  
REMARK   3   A    between atoms:  C5_9    and   C3_12 
REMARK   4   A    between atoms:  C6_8    and   N7_14 
REMARK   5   A    between atoms:  C8_15   and  C10_17 
REMARK   6   A    between atoms: C10_17   and  O11_18 
REMARK   7   A    between atoms: O11_18   and  C12_19 
REMARK   8   A    between atoms: C13_20   and  C14_25 
REMARK   9   A    between atoms: C14_25   and  N15_26 
REMARK   10  A    between atoms: C24_24   and  O25_32 
ROOT
ATOM      1 C27  MOL A   1       8.472 -19.970  -9.877  1.00  0.00    -0.024 A 
ATOM      2 C28  MOL A   1       7.238 -20.016 -10.551  1.00  0.00    -0.057 A 
ATOM      3 C29  MOL A   1       6.849 -21.173 -11.235  1.00  0.00    -0.061 A 
ATOM      4 C30  MOL A   1       7.685 -22.293 -11.253  1.00  0.00    -0.048 A 
ATOM      5 C31  MOL A   1       8.913 -22.261 -10.583  1.00  0.00     0.018 A 
ATOM      6 Br32 MOL A   1      10.047 -23.802 -10.590  1.00  0.00    -0.051 Br
ATOM      7 C33  MOL A   1       9.309 -21.105  -9.903  1.00  0.00    -0.043 A 
ENDROOT
BRANCH   1   8
ATOM      8  C6  MOL A   1       8.919 -18.692  -9.201  1.00  0.00     0.063 C 
BRANCH   8   9
ATOM      9  C5  MOL A   1       8.036 -17.517  -9.660  1.00  0.00     0.051 C 
BRANCH   9  12
ATOM     10  C1  MOL A   1       5.380 -16.410  -7.034  1.00  0.00     0.006 C 
ATOM     11  N2  MOL A   1       6.025 -17.063  -8.165  1.00  0.00    -0.359 N 
ATOM     12  C3  MOL A   1       7.397 -16.820  -8.493  1.00  0.00     0.222 C 
ATOM     13  O4  MOL A   1       8.081 -16.019  -7.800  1.00  0.00    -0.275 OA
ENDBRANCH   9  12
ENDBRANCH   8   9
BRANCH   8  14
ATOM     14  N7  MOL A   1      10.330 -18.425  -9.500  1.00  0.00    -0.346 N 
ATOM     15  C8  MOL A   1      11.247 -17.944  -8.515  1.00  0.00     0.258 C 
ATOM     16  O9  MOL A   1      10.856 -17.721  -7.338  1.00  0.00    -0.271 OA
BRANCH  15  17
ATOM     17 C10  MOL A   1      12.686 -17.713  -8.867  1.00  0.00     0.167 C 
BRANCH  17  18
ATOM     18 O11  MOL A   1      13.480 -17.623  -7.687  1.00  0.00    -0.480 OA
BRANCH  18  19
ATOM     19 C12  MOL A   1      14.870 -17.767  -7.717  1.00  0.00     0.166 A 
ATOM     20 C13  MOL A   1      15.470 -19.003  -8.049  1.00  0.00     0.012 A 
ATOM     21 C21  MOL A   1      16.870 -19.081  -8.143  1.00  0.00    -0.054 A 
ATOM     22 C22  MOL A   1      17.662 -17.967  -7.866  1.00  0.00    -0.058 A 
ATOM     23 C23  MOL A   1      17.069 -16.762  -7.490  1.00  0.00    -0.016 A 
ATOM     24 C24  MOL A   1      15.669 -16.653  -7.408  1.00  0.00     0.161 A 
BRANCH  20  25
ATOM     25 C14  MOL A   1      14.647 -20.246  -8.303  1.00  0.00     0.028 C 
BRANCH  25  26
ATOM     26 N15  MOL A   1      14.358 -20.942  -7.033  1.00  0.00    -0.287 NA
ATOM     27 C16  MOL A   1      14.429 -22.405  -7.190  1.00  0.00     0.064 C 
ATOM     28 C17  MOL A   1      12.946 -22.579  -6.926  1.00  0.00     0.272 C 
ATOM     29 F18  MOL A   1      12.666 -23.249  -5.748  1.00  0.00    -0.204 F 
ATOM     30 F19  MOL A   1      12.236 -23.046  -8.020  1.00  0.00    -0.204 F 
ATOM     31 C20  MOL A   1      12.912 -21.070  -6.785  1.00  0.00     0.064 C 
ENDBRANCH  25  26
ENDBRANCH  20  25
BRANCH  24  32
ATOM     32 O25  MOL A   1      15.034 -15.460  -7.032  1.00  0.00    -0.493 OA
ATOM     33 C26  MOL A   1      14.594 -14.460  -7.945  1.00  0.00     0.078 C 
ENDBRANCH  24  32
ENDBRANCH  18  19
ENDBRANCH  17  18
ENDBRANCH  15  17
ENDBRANCH   8  14
ENDBRANCH   1   8
TORSDOF 10
ENDMDL
MODEL 296
REMARK VINA RESULT:    -7.172      4.596      8.180
REMARK INTER + INTRA:         -12.413
REMARK INTER:                 -11.220
REMARK INTRA:                  -1.193
REMARK UNBOUND:                -1.048
REMARK  10 active torsions:
REMARK  status: ('A' for Active; 'I' for Inactive)
REMARK   1   A    between atoms:  C27_1   and   C6_8  
REMARK   2   A    between atoms:  C6_8    and   C5_9  
REMARK   3   A    between atoms:  C5_9    and   C3_12 
REMARK   4   A    between atoms:  C6_8    and   N7_14 
REMARK   5   A    between atoms:  C8_15   and  C10_17 
REMARK   6   A    between atoms: C10_17   and  O11_18 
REMARK   7   A    between atoms: O11_18   and  C12_19 
REMARK   8   A    between atoms: C13_20   and  C14_25 
REMARK   9   A    between atoms: C14_25   and  N15_26 
REMARK   10  A    between atoms: C24_24   and  O25_32 
ROOT
ATOM      1 C27  MOL A   1       3.755 -13.819 -10.680  1.00  0.00    -0.024 A 
ATOM      2 C28  MOL A   1       2.417 -14.247 -10.599  1.00  0.00    -0.057 A 
ATOM      3 C29  MOL A   1       1.372 -13.350 -10.843  1.00  0.00    -0.061 A 
ATOM      4 C30  MOL A   1       1.650 -12.020 -11.168  1.00  0.00    -0.048 A 
ATOM      5 C31  MOL A   1       2.976 -11.582 -11.256  1.00  0.00     0.018 A 
ATOM      6 Br32 MOL A   1       3.357  -9.766 -11.723  1.00  0.00    -0.051 Br
ATOM      7 C33  MOL A   1       4.024 -12.475 -11.008  1.00  0.00    -0.043 A 
ENDROOT
BRANCH   1   8
ATOM      8  C6  MOL A   1       4.878 -14.776 -10.344  1.00  0.00     0.063 C 
BRANCH   8   9
ATOM      9  C5  MOL A   1       5.555 -15.269 -11.636  1.00  0.00     0.051 C 
BRANCH   9  12
ATOM     10  C1  MOL A   1       8.218 -18.100 -11.896  1.00  0.00     0.006 C 
ATOM     11  N2  MOL A   1       7.058 -17.259 -12.153  1.00  0.00    -0.359 N 
ATOM     12  C3  MOL A   1       6.754 -16.122 -11.338  1.00  0.00     0.222 C 
ATOM     13  O4  MOL A   1       7.497 -15.827 -10.362  1.00  0.00    -0.275 OA
ENDBRANCH   9  12
ENDBRANCH   8   9
BRANCH   8  14
ATOM     14  N7  MOL A   1       4.365 -15.909  -9.567  1.00  0.00    -0.346 N 
ATOM     15  C8  MOL A   1       4.855 -16.233  -8.264  1.00  0.00     0.258 C 
ATOM     16  O9  MOL A   1       5.770 -15.544  -7.740  1.00  0.00    -0.271 OA
BRANCH  15  17
ATOM     17 C10  MOL A   1       4.276 -17.387  -7.501  1.00  0.00     0.167 C 
BRANCH  17  18
ATOM     18 O11  MOL A   1       5.286 -18.351  -7.213  1.00  0.00    -0.480 OA
BRANCH  18  19
ATOM     19 C12  MOL A   1       5.622 -19.365  -8.114  1.00  0.00     0.166 A 
ATOM     20 C13  MOL A   1       4.708 -20.397  -8.427  1.00  0.00     0.012 A 
ATOM     21 C21  MOL A   1       5.058 -21.351  -9.397  1.00  0.00    -0.054 A 
ATOM     22 C22  MOL A   1       6.310 -21.310 -10.011  1.00  0.00    -0.058 A 
ATOM     23 C23  MOL A   1       7.229 -20.320  -9.664  1.00  0.00    -0.016 A 
ATOM     24 C24  MOL A   1       6.894 -19.342  -8.709  1.00  0.00     0.161 A 
BRANCH  20  25
ATOM     25 C14  MOL A   1       3.363 -20.504  -7.744  1.00  0.00     0.028 C 
BRANCH  25  26
ATOM     26 N15  MOL A   1       2.650 -21.718  -8.195  1.00  0.00    -0.287 NA
ATOM     27 C16  MOL A   1       1.383 -21.384  -8.867  1.00  0.00     0.064 C 
ATOM     28 C17  MOL A   1       0.550 -22.028  -7.777  1.00  0.00     0.272 C 
ATOM     29 F18  MOL A   1      -0.137 -23.154  -8.195  1.00  0.00    -0.204 F 
ATOM     30 F19  MOL A   1      -0.226 -21.129  -7.063  1.00  0.00    -0.204 F 
ATOM     31 C20  MOL A   1       1.875 -22.342  -7.109  1.00  0.00     0.064 C 
ENDBRANCH  25  26
ENDBRANCH  20  25
BRANCH  24  32
ATOM     32 O25  MOL A   1       7.789 -18.331  -8.331  1.00  0.00    -0.493 OA
ATOM     33 C26  MOL A   1       9.207 -18.451  -8.382  1.00  0.00     0.078 C 
ENDBRANCH  24  32
ENDBRANCH  18  19
ENDBRANCH  17  18
ENDBRANCH  15  17
ENDBRANCH   8  14
ENDBRANCH   1   8
TORSDOF 10
ENDMDL
MODEL 297
REMARK VINA RESULT:    -7.171      6.905     10.235
REMARK INTER + INTRA:         -12.411
REMARK INTER:                 -11.102
REMARK INTRA:                  -1.309
REMARK UNBOUND:                -1.048
REMARK  10 active torsions:
REMARK  status: ('A' for Active; 'I' for Inactive)
REMARK   1   A    between atoms:  C27_1   and   C6_8  
REMARK   2   A    between atoms:  C6_8    and   C5_9  
REMARK   3   A    between atoms:  C5_9    and   C3_12 
REMARK   4   A    between atoms:  C6_8    and   N7_14 
REMARK   5   A    between atoms:  C8_15   and  C10_17 
REMARK   6   A    between atoms: C10_17   and  O11_18 
REMARK   7   A    between atoms: O11_18   and  C12_19 
REMARK   8   A    between atoms: C13_20   and  C14_25 
REMARK   9   A    between atoms: C14_25   and  N15_26 
REMARK   10  A    between atoms: C24_24   and  O25_32 
ROOT
ATOM      1 C27  MOL A   1      15.509 -17.724  -5.146  1.00  0.00    -0.024 A 
ATOM      2 C28  MOL A   1      15.740 -18.503  -3.997  1.00  0.00    -0.057 A 
ATOM      3 C29  MOL A   1      15.490 -17.978  -2.725  1.00  0.00    -0.061 A 
ATOM      4 C30  MOL A   1      15.009 -16.673  -2.586  1.00  0.00    -0.048 A 
ATOM      5 C31  MOL A   1      14.772 -15.889  -3.720  1.00  0.00     0.018 A 
ATOM      6 Br32 MOL A   1      14.093 -14.110  -3.530  1.00  0.00    -0.051 Br
ATOM      7 C33  MOL A   1      15.025 -16.408  -4.994  1.00  0.00    -0.043 A 
ENDROOT
BRANCH   1   8
ATOM      8  C6  MOL A   1      15.849 -18.273  -6.514  1.00  0.00     0.063 C 
BRANCH   8   9
ATOM      9  C5  MOL A   1      17.173 -17.664  -7.012  1.00  0.00     0.051 C 
BRANCH   9  12
ATOM     10  C1  MOL A   1      19.816 -20.502  -7.374  1.00  0.00     0.006 C 
ATOM     11  N2  MOL A   1      18.687 -19.618  -7.624  1.00  0.00    -0.359 N 
ATOM     12  C3  MOL A   1      18.338 -18.565  -6.720  1.00  0.00     0.222 C 
ATOM     13  O4  MOL A   1      19.012 -18.384  -5.669  1.00  0.00    -0.275 OA
ENDBRANCH   9  12
ENDBRANCH   8   9
BRANCH   8  14
ATOM     14  N7  MOL A   1      14.764 -17.991  -7.460  1.00  0.00    -0.346 N 
ATOM     15  C8  MOL A   1      14.170 -19.006  -8.273  1.00  0.00     0.258 C 
ATOM     16  O9  MOL A   1      14.580 -20.195  -8.206  1.00  0.00    -0.271 OA
BRANCH  15  17
ATOM     17 C10  MOL A   1      13.045 -18.668  -9.204  1.00  0.00     0.167 C 
BRANCH  17  18
ATOM     18 O11  MOL A   1      11.795 -19.052  -8.636  1.00  0.00    -0.480 OA
BRANCH  18  19
ATOM     19 C12  MOL A   1      10.653 -18.254  -8.748  1.00  0.00     0.166 A 
ATOM     20 C13  MOL A   1       9.661 -18.530  -9.717  1.00  0.00     0.012 A 
ATOM     21 C21  MOL A   1       8.493 -17.750  -9.742  1.00  0.00    -0.054 A 
ATOM     22 C22  MOL A   1       8.333 -16.685  -8.855  1.00  0.00    -0.058 A 
ATOM     23 C23  MOL A   1       9.335 -16.383  -7.934  1.00  0.00    -0.016 A 
ATOM     24 C24  MOL A   1      10.506 -17.163  -7.876  1.00  0.00     0.161 A 
BRANCH  20  25
ATOM     25 C14  MOL A   1       9.823 -19.642 -10.729  1.00  0.00     0.028 C 
BRANCH  25  26
ATOM     26 N15  MOL A   1       8.806 -20.691 -10.510  1.00  0.00    -0.287 NA
ATOM     27 C16  MOL A   1       8.822 -21.181  -9.122  1.00  0.00     0.064 C 
ATOM     28 C17  MOL A   1       9.288 -22.562  -9.537  1.00  0.00     0.272 C 
ATOM     29 F18  MOL A   1       8.349 -23.555  -9.317  1.00  0.00    -0.204 F 
ATOM     30 F19  MOL A   1      10.559 -22.881  -9.087  1.00  0.00    -0.204 F 
ATOM     31 C20  MOL A   1       9.271 -22.017 -10.952  1.00  0.00     0.064 C 
ENDBRANCH  25  26
ENDBRANCH  20  25
BRANCH  24  32
ATOM     32 O25  MOL A   1      11.537 -16.892  -6.966  1.00  0.00    -0.493 OA
ATOM     33 C26  MOL A   1      11.769 -15.623  -6.365  1.00  0.00     0.078 C 
ENDBRANCH  24  32
ENDBRANCH  18  19
ENDBRANCH  17  18
ENDBRANCH  15  17
ENDBRANCH   8  14
ENDBRANCH   1   8
TORSDOF 10
ENDMDL
MODEL 298
REMARK VINA RESULT:    -7.170      6.713     11.104
REMARK INTER + INTRA:         -12.410
REMARK INTER:                 -10.997
REMARK INTRA:                  -1.413
REMARK UNBOUND:                -1.048
REMARK  10 active torsions:
REMARK  status: ('A' for Active; 'I' for Inactive)
REMARK   1   A    between atoms:  C27_1   and   C6_8  
REMARK   2   A    between atoms:  C6_8    and   C5_9  
REMARK   3   A    between atoms:  C5_9    and   C3_12 
REMARK   4   A    between atoms:  C6_8    and   N7_14 
REMARK   5   A    between atoms:  C8_15   and  C10_17 
REMARK   6   A    between atoms: C10_17   and  O11_18 
REMARK   7   A    between atoms: O11_18   and  C12_19 
REMARK   8   A    between atoms: C13_20   and  C14_25 
REMARK   9   A    between atoms: C14_25   and  N15_26 
REMARK   10  A    between atoms: C24_24   and  O25_32 
ROOT
ATOM      1 C27  MOL A   1       9.886 -18.762  -9.447  1.00  0.00    -0.024 A 
ATOM      2 C28  MOL A   1       9.678 -18.791 -10.838  1.00  0.00    -0.057 A 
ATOM      3 C29  MOL A   1       8.520 -18.236 -11.392  1.00  0.00    -0.061 A 
ATOM      4 C30  MOL A   1       7.559 -17.647 -10.565  1.00  0.00    -0.048 A 
ATOM      5 C31  MOL A   1       7.755 -17.609  -9.180  1.00  0.00     0.018 A 
ATOM      6 Br32 MOL A   1       6.450 -16.784  -8.051  1.00  0.00    -0.051 Br
ATOM      7 C33  MOL A   1       8.909 -18.168  -8.622  1.00  0.00    -0.043 A 
ENDROOT
BRANCH   1   8
ATOM      8  C6  MOL A   1      11.106 -19.429  -8.849  1.00  0.00     0.063 C 
BRANCH   8   9
ATOM      9  C5  MOL A   1      10.679 -20.613  -7.963  1.00  0.00     0.051 C 
BRANCH   9  12
ATOM     10  C1  MOL A   1      12.068 -24.157  -8.788  1.00  0.00     0.006 C 
ATOM     11  N2  MOL A   1      11.173 -23.020  -8.635  1.00  0.00    -0.359 N 
ATOM     12  C3  MOL A   1      11.624 -21.771  -8.098  1.00  0.00     0.222 C 
ATOM     13  O4  MOL A   1      12.825 -21.636  -7.737  1.00  0.00    -0.275 OA
ENDBRANCH   9  12
ENDBRANCH   8   9
BRANCH   8  14
ATOM     14  N7  MOL A   1      11.887 -18.459  -8.074  1.00  0.00    -0.346 N 
ATOM     15  C8  MOL A   1      13.264 -18.188  -8.345  1.00  0.00     0.258 C 
ATOM     16  O9  MOL A   1      13.861 -18.797  -9.272  1.00  0.00    -0.271 OA
BRANCH  15  17
ATOM     17 C10  MOL A   1      14.008 -17.167  -7.538  1.00  0.00     0.167 C 
BRANCH  17  18
ATOM     18 O11  MOL A   1      14.576 -17.767  -6.376  1.00  0.00    -0.480 OA
BRANCH  18  19
ATOM     19 C12  MOL A   1      15.956 -17.805  -6.161  1.00  0.00     0.166 A 
ATOM     20 C13  MOL A   1      16.640 -16.703  -5.599  1.00  0.00     0.012 A 
ATOM     21 C21  MOL A   1      18.014 -16.814  -5.327  1.00  0.00    -0.054 A 
ATOM     22 C22  MOL A   1      18.707 -17.980  -5.650  1.00  0.00    -0.058 A 
ATOM     23 C23  MOL A   1      18.041 -19.049  -6.251  1.00  0.00    -0.016 A 
ATOM     24 C24  MOL A   1      16.661 -18.968  -6.515  1.00  0.00     0.161 A 
BRANCH  20  25
ATOM     25 C14  MOL A   1      15.932 -15.403  -5.284  1.00  0.00     0.028 C 
BRANCH  25  26
ATOM     26 N15  MOL A   1      15.899 -15.175  -3.825  1.00  0.00    -0.287 NA
ATOM     27 C16  MOL A   1      14.990 -16.118  -3.150  1.00  0.00     0.064 C 
ATOM     28 C17  MOL A   1      14.034 -15.016  -2.739  1.00  0.00     0.272 C 
ATOM     29 F18  MOL A   1      13.980 -14.808  -1.372  1.00  0.00    -0.204 F 
ATOM     30 F19  MOL A   1      12.790 -15.103  -3.343  1.00  0.00    -0.204 F 
ATOM     31 C20  MOL A   1      14.987 -14.079  -3.455  1.00  0.00     0.064 C 
ENDBRANCH  25  26
ENDBRANCH  20  25
BRANCH  24  32
ATOM     32 O25  MOL A   1      15.954 -20.019  -7.117  1.00  0.00    -0.493 OA
ATOM     33 C26  MOL A   1      16.519 -20.944  -8.041  1.00  0.00     0.078 C 
ENDBRANCH  24  32
ENDBRANCH  18  19
ENDBRANCH  17  18
ENDBRANCH  15  17
ENDBRANCH   8  14
ENDBRANCH   1   8
TORSDOF 10
ENDMDL
MODEL 299
REMARK VINA RESULT:    -7.170      6.228     11.089
REMARK INTER + INTRA:         -12.409
REMARK INTER:                 -11.064
REMARK INTRA:                  -1.346
REMARK UNBOUND:                -1.048
REMARK  10 active torsions:
REMARK  status: ('A' for Active; 'I' for Inactive)
REMARK   1   A    between atoms:  C27_1   and   C6_8  
REMARK   2   A    between atoms:  C6_8    and   C5_9  
REMARK   3   A    between atoms:  C5_9    and   C3_12 
REMARK   4   A    between atoms:  C6_8    and   N7_14 
REMARK   5   A    between atoms:  C8_15   and  C10_17 
REMARK   6   A    between atoms: C10_17   and  O11_18 
REMARK   7   A    between atoms: O11_18   and  C12_19 
REMARK   8   A    between atoms: C13_20   and  C14_25 
REMARK   9   A    between atoms: C14_25   and  N15_26 
REMARK   10  A    between atoms: C24_24   and  O25_32 
ROOT
ATOM      1 C27  MOL A   1       8.966 -20.761  -9.741  1.00  0.00    -0.024 A 
ATOM      2 C28  MOL A   1       7.616 -21.137  -9.859  1.00  0.00    -0.057 A 
ATOM      3 C29  MOL A   1       7.252 -22.488  -9.838  1.00  0.00    -0.061 A 
ATOM      4 C30  MOL A   1       8.232 -23.475  -9.700  1.00  0.00    -0.048 A 
ATOM      5 C31  MOL A   1       9.578 -23.115  -9.578  1.00  0.00     0.018 A 
ATOM      6 Br32 MOL A   1      10.916 -24.467  -9.366  1.00  0.00    -0.051 Br
ATOM      7 C33  MOL A   1       9.946 -21.766  -9.604  1.00  0.00    -0.043 A 
ENDROOT
BRANCH   1   8
ATOM      8  C6  MOL A   1       9.358 -19.303  -9.837  1.00  0.00     0.063 C 
BRANCH   8   9
ATOM      9  C5  MOL A   1       8.637 -18.640 -11.025  1.00  0.00     0.051 C 
BRANCH   9  12
ATOM     10  C1  MOL A   1       6.231 -15.579 -11.134  1.00  0.00     0.006 C 
ATOM     11  N2  MOL A   1       7.049 -16.715 -11.534  1.00  0.00    -0.359 N 
ATOM     12  C3  MOL A   1       7.811 -17.467 -10.583  1.00  0.00     0.222 C 
ATOM     13  O4  MOL A   1       7.791 -17.149  -9.363  1.00  0.00    -0.275 OA
ENDBRANCH   9  12
ENDBRANCH   8   9
BRANCH   8  14
ATOM     14  N7  MOL A   1      10.812 -19.175  -9.980  1.00  0.00    -0.346 N 
ATOM     15  C8  MOL A   1      11.581 -18.241  -9.219  1.00  0.00     0.258 C 
ATOM     16  O9  MOL A   1      11.016 -17.477  -8.393  1.00  0.00    -0.271 OA
BRANCH  15  17
ATOM     17 C10  MOL A   1      13.070 -18.171  -9.386  1.00  0.00     0.167 C 
BRANCH  17  18
ATOM     18 O11  MOL A   1      13.697 -17.868  -8.142  1.00  0.00    -0.480 OA
BRANCH  18  19
ATOM     19 C12  MOL A   1      14.673 -16.875  -8.026  1.00  0.00     0.166 A 
ATOM     20 C13  MOL A   1      16.012 -17.118  -8.409  1.00  0.00     0.012 A 
ATOM     21 C21  MOL A   1      16.943 -16.067  -8.350  1.00  0.00    -0.054 A 
ATOM     22 C22  MOL A   1      16.565 -14.812  -7.874  1.00  0.00    -0.058 A 
ATOM     23 C23  MOL A   1      15.255 -14.589  -7.448  1.00  0.00    -0.016 A 
ATOM     24 C24  MOL A   1      14.300 -15.620  -7.517  1.00  0.00     0.161 A 
BRANCH  20  25
ATOM     25 C14  MOL A   1      16.471 -18.480  -8.881  1.00  0.00     0.028 C 
BRANCH  25  26
ATOM     26 N15  MOL A   1      17.787 -18.812  -8.295  1.00  0.00    -0.287 NA
ATOM     27 C16  MOL A   1      18.305 -20.088  -8.816  1.00  0.00     0.064 C 
ATOM     28 C17  MOL A   1      18.204 -20.765  -7.463  1.00  0.00     0.272 C 
ATOM     29 F18  MOL A   1      19.431 -21.099  -6.916  1.00  0.00    -0.204 F 
ATOM     30 F19  MOL A   1      17.273 -21.790  -7.420  1.00  0.00    -0.204 F 
ATOM     31 C20  MOL A   1      17.662 -19.438  -6.968  1.00  0.00     0.064 C 
ENDBRANCH  25  26
ENDBRANCH  20  25
BRANCH  24  32
ATOM     32 O25  MOL A   1      12.974 -15.437  -7.099  1.00  0.00    -0.493 OA
ATOM     33 C26  MOL A   1      12.581 -15.181  -5.755  1.00  0.00     0.078 C 
ENDBRANCH  24  32
ENDBRANCH  18  19
ENDBRANCH  17  18
ENDBRANCH  15  17
ENDBRANCH   8  14
ENDBRANCH   1   8
TORSDOF 10
ENDMDL
MODEL 300
REMARK VINA RESULT:    -7.165      7.108     11.980
REMARK INTER + INTRA:         -12.402
REMARK INTER:                 -10.517
REMARK INTRA:                  -1.885
REMARK UNBOUND:                -1.048
REMARK  10 active torsions:
REMARK  status: ('A' for Active; 'I' for Inactive)
REMARK   1   A    between atoms:  C27_1   and   C6_8  
REMARK   2   A    between atoms:  C6_8    and   C5_9  
REMARK   3   A    between atoms:  C5_9    and   C3_12 
REMARK   4   A    between atoms:  C6_8    and   N7_14 
REMARK   5   A    between atoms:  C8_15   and  C10_17 
REMARK   6   A    between atoms: C10_17   and  O11_18 
REMARK   7   A    between atoms: O11_18   and  C12_19 
REMARK   8   A    between atoms: C13_20   and  C14_25 
REMARK   9   A    between atoms: C14_25   and  N15_26 
REMARK   10  A    between atoms: C24_24   and  O25_32 
ROOT
ATOM      1 C27  MOL A   1      13.506 -19.153  -7.052  1.00  0.00    -0.024 A 
ATOM      2 C28  MOL A   1      14.865 -19.049  -6.701  1.00  0.00    -0.057 A 
ATOM      3 C29  MOL A   1      15.574 -20.179  -6.278  1.00  0.00    -0.061 A 
ATOM      4 C30  MOL A   1      14.937 -21.420  -6.202  1.00  0.00    -0.048 A 
ATOM      5 C31  MOL A   1      13.587 -21.537  -6.552  1.00  0.00     0.018 A 
ATOM      6 Br32 MOL A   1      12.720 -23.241  -6.468  1.00  0.00    -0.051 Br
ATOM      7 C33  MOL A   1      12.873 -20.409  -6.969  1.00  0.00    -0.043 A 
ENDROOT
BRANCH   1   8
ATOM      8  C6  MOL A   1      12.727 -17.914  -7.438  1.00  0.00     0.063 C 
BRANCH   8   9
ATOM      9  C5  MOL A   1      12.246 -18.026  -8.896  1.00  0.00     0.051 C 
BRANCH   9  12
ATOM     10  C1  MOL A   1       8.579 -18.384 -10.159  1.00  0.00     0.006 C 
ATOM     11  N2  MOL A   1      10.024 -18.517 -10.039  1.00  0.00    -0.359 N 
ATOM     12  C3  MOL A   1      10.758 -17.861  -8.999  1.00  0.00     0.222 C 
ATOM     13  O4  MOL A   1      10.155 -17.140  -8.158  1.00  0.00    -0.275 OA
ENDBRANCH   9  12
ENDBRANCH   8   9
BRANCH   8  14
ATOM     14  N7  MOL A   1      13.555 -16.717  -7.258  1.00  0.00    -0.346 N 
ATOM     15  C8  MOL A   1      13.150 -15.617  -6.439  1.00  0.00     0.258 C 
ATOM     16  O9  MOL A   1      12.040 -15.644  -5.844  1.00  0.00    -0.271 OA
BRANCH  15  17
ATOM     17 C10  MOL A   1      14.047 -14.428  -6.269  1.00  0.00     0.167 C 
BRANCH  17  18
ATOM     18 O11  MOL A   1      14.782 -14.528  -5.052  1.00  0.00    -0.480 OA
BRANCH  18  19
ATOM     19 C12  MOL A   1      15.724 -15.537  -4.835  1.00  0.00     0.166 A 
ATOM     20 C13  MOL A   1      15.654 -16.371  -3.695  1.00  0.00     0.012 A 
ATOM     21 C21  MOL A   1      16.575 -17.423  -3.558  1.00  0.00    -0.054 A 
ATOM     22 C22  MOL A   1      17.577 -17.616  -4.510  1.00  0.00    -0.058 A 
ATOM     23 C23  MOL A   1      17.675 -16.761  -5.608  1.00  0.00    -0.016 A 
ATOM     24 C24  MOL A   1      16.752 -15.712  -5.777  1.00  0.00     0.161 A 
BRANCH  20  25
ATOM     25 C14  MOL A   1      14.615 -16.159  -2.617  1.00  0.00     0.028 C 
BRANCH  25  26
ATOM     26 N15  MOL A   1      15.267 -15.920  -1.313  1.00  0.00    -0.287 NA
ATOM     27 C16  MOL A   1      14.286 -15.563  -0.274  1.00  0.00     0.064 C 
ATOM     28 C17  MOL A   1      14.839 -14.159  -0.131  1.00  0.00     0.272 C 
ATOM     29 F18  MOL A   1      15.434 -13.918   1.096  1.00  0.00    -0.204 F 
ATOM     30 F19  MOL A   1      13.957 -13.168  -0.531  1.00  0.00    -0.204 F 
ATOM     31 C20  MOL A   1      15.824 -14.560  -1.211  1.00  0.00     0.064 C 
ENDBRANCH  25  26
ENDBRANCH  20  25
BRANCH  24  32
ATOM     32 O25  MOL A   1      16.816 -14.831  -6.866  1.00  0.00    -0.493 OA
ATOM     33 C26  MOL A   1      16.789 -15.234  -8.231  1.00  0.00     0.078 C 
ENDBRANCH  24  32
ENDBRANCH  18  19
ENDBRANCH  17  18
ENDBRANCH  15  17
ENDBRANCH   8  14
ENDBRANCH   1   8
TORSDOF 10
ENDMDL
MODEL 301
REMARK VINA RESULT:    -7.162      6.520     10.652
REMARK INTER + INTRA:         -12.397
REMARK INTER:                 -11.131
REMARK INTRA:                  -1.266
REMARK UNBOUND:                -1.048
REMARK  10 active torsions:
REMARK  status: ('A' for Active; 'I' for Inactive)
REMARK   1   A    between atoms:  C27_1   and   C6_8  
REMARK   2   A    between atoms:  C6_8    and   C5_9  
REMARK   3   A    between atoms:  C5_9    and   C3_12 
REMARK   4   A    between atoms:  C6_8    and   N7_14 
REMARK   5   A    between atoms:  C8_15   and  C10_17 
REMARK   6   A    between atoms: C10_17   and  O11_18 
REMARK   7   A    between atoms: O11_18   and  C12_19 
REMARK   8   A    between atoms: C13_20   and  C14_25 
REMARK   9   A    between atoms: C14_25   and  N15_26 
REMARK   10  A    between atoms: C24_24   and  O25_32 
ROOT
ATOM      1 C27  MOL A   1       7.541 -18.646  -8.394  1.00  0.00    -0.024 A 
ATOM      2 C28  MOL A   1       7.266 -17.283  -8.182  1.00  0.00    -0.057 A 
ATOM      3 C29  MOL A   1       5.988 -16.871  -7.790  1.00  0.00    -0.061 A 
ATOM      4 C30  MOL A   1       4.973 -17.814  -7.606  1.00  0.00    -0.048 A 
ATOM      5 C31  MOL A   1       5.234 -19.174  -7.810  1.00  0.00     0.018 A 
ATOM      6 Br32 MOL A   1       3.850 -20.466  -7.536  1.00  0.00    -0.051 Br
ATOM      7 C33  MOL A   1       6.509 -19.589  -8.207  1.00  0.00    -0.043 A 
ENDROOT
BRANCH   1   8
ATOM      8  C6  MOL A   1       8.906 -19.076  -8.888  1.00  0.00     0.063 C 
BRANCH   8   9
ATOM      9  C5  MOL A   1       9.026 -20.610  -8.835  1.00  0.00     0.051 C 
BRANCH   9  12
ATOM     10  C1  MOL A   1       7.341 -22.497 -11.797  1.00  0.00     0.006 C 
ATOM     11  N2  MOL A   1       7.584 -21.899 -10.492  1.00  0.00    -0.359 N 
ATOM     12  C3  MOL A   1       8.810 -21.225 -10.187  1.00  0.00     0.222 C 
ATOM     13  O4  MOL A   1       9.719 -21.142 -11.058  1.00  0.00    -0.275 OA
ENDBRANCH   9  12
ENDBRANCH   8   9
BRANCH   8  14
ATOM     14  N7  MOL A   1       9.959 -18.447  -8.083  1.00  0.00    -0.346 N 
ATOM     15  C8  MOL A   1      11.272 -18.203  -8.590  1.00  0.00     0.258 C 
ATOM     16  O9  MOL A   1      11.570 -18.537  -9.767  1.00  0.00    -0.271 OA
BRANCH  15  17
ATOM     17 C10  MOL A   1      12.304 -17.533  -7.733  1.00  0.00     0.167 C 
BRANCH  17  18
ATOM     18 O11  MOL A   1      13.305 -16.921  -8.543  1.00  0.00    -0.480 OA
BRANCH  18  19
ATOM     19 C12  MOL A   1      14.646 -16.876  -8.155  1.00  0.00     0.166 A 
ATOM     20 C13  MOL A   1      15.487 -18.004  -8.295  1.00  0.00     0.012 A 
ATOM     21 C21  MOL A   1      16.848 -17.890  -7.967  1.00  0.00    -0.054 A 
ATOM     22 C22  MOL A   1      17.357 -16.693  -7.463  1.00  0.00    -0.058 A 
ATOM     23 C23  MOL A   1      16.515 -15.596  -7.278  1.00  0.00    -0.016 A 
ATOM     24 C24  MOL A   1      15.152 -15.680  -7.619  1.00  0.00     0.161 A 
BRANCH  20  25
ATOM     25 C14  MOL A   1      14.959 -19.334  -8.788  1.00  0.00     0.028 C 
BRANCH  25  26
ATOM     26 N15  MOL A   1      14.689 -20.235  -7.649  1.00  0.00    -0.287 NA
ATOM     27 C16  MOL A   1      15.649 -21.350  -7.601  1.00  0.00     0.064 C 
ATOM     28 C17  MOL A   1      14.579 -22.382  -7.896  1.00  0.00     0.272 C 
ATOM     29 F18  MOL A   1      14.333 -23.245  -6.842  1.00  0.00    -0.204 F 
ATOM     30 F19  MOL A   1      14.738 -23.018  -9.116  1.00  0.00    -0.204 F 
ATOM     31 C20  MOL A   1      13.623 -21.206  -7.950  1.00  0.00     0.064 C 
ENDBRANCH  25  26
ENDBRANCH  20  25
BRANCH  24  32
ATOM     32 O25  MOL A   1      14.273 -14.601  -7.448  1.00  0.00    -0.493 OA
ATOM     33 C26  MOL A   1      13.486 -14.380  -6.283  1.00  0.00     0.078 C 
ENDBRANCH  24  32
ENDBRANCH  18  19
ENDBRANCH  17  18
ENDBRANCH  15  17
ENDBRANCH   8  14
ENDBRANCH   1   8
TORSDOF 10
ENDMDL
MODEL 302
REMARK VINA RESULT:    -7.160      6.350     10.968
REMARK INTER + INTRA:         -12.394
REMARK INTER:                 -11.284
REMARK INTRA:                  -1.109
REMARK UNBOUND:                -1.048
REMARK  10 active torsions:
REMARK  status: ('A' for Active; 'I' for Inactive)
REMARK   1   A    between atoms:  C27_1   and   C6_8  
REMARK   2   A    between atoms:  C6_8    and   C5_9  
REMARK   3   A    between atoms:  C5_9    and   C3_12 
REMARK   4   A    between atoms:  C6_8    and   N7_14 
REMARK   5   A    between atoms:  C8_15   and  C10_17 
REMARK   6   A    between atoms: C10_17   and  O11_18 
REMARK   7   A    between atoms: O11_18   and  C12_19 
REMARK   8   A    between atoms: C13_20   and  C14_25 
REMARK   9   A    between atoms: C14_25   and  N15_26 
REMARK   10  A    between atoms: C24_24   and  O25_32 
ROOT
ATOM      1 C27  MOL A   1       9.487 -18.736  -9.494  1.00  0.00    -0.024 A 
ATOM      2 C28  MOL A   1       9.281 -18.554 -10.874  1.00  0.00    -0.057 A 
ATOM      3 C29  MOL A   1       8.169 -17.841 -11.335  1.00  0.00    -0.061 A 
ATOM      4 C30  MOL A   1       7.253 -17.304 -10.425  1.00  0.00    -0.048 A 
ATOM      5 C31  MOL A   1       7.448 -17.475  -9.050  1.00  0.00     0.018 A 
ATOM      6 Br32 MOL A   1       6.206 -16.722  -7.806  1.00  0.00    -0.051 Br
ATOM      7 C33  MOL A   1       8.556 -18.192  -8.586  1.00  0.00    -0.043 A 
ENDROOT
BRANCH   1   8
ATOM      8  C6  MOL A   1      10.652 -19.570  -9.006  1.00  0.00     0.063 C 
BRANCH   8   9
ATOM      9  C5  MOL A   1      10.135 -20.817  -8.266  1.00  0.00     0.051 C 
BRANCH   9  12
ATOM     10  C1  MOL A   1       7.267 -22.648 -10.163  1.00  0.00     0.006 C 
ATOM     11  N2  MOL A   1       7.989 -21.760  -9.263  1.00  0.00    -0.359 N 
ATOM     12  C3  MOL A   1       9.419 -21.752  -9.197  1.00  0.00     0.222 C 
ATOM     13  O4  MOL A   1      10.090 -22.532  -9.927  1.00  0.00    -0.275 OA
ENDBRANCH   9  12
ENDBRANCH   8   9
BRANCH   8  14
ATOM     14  N7  MOL A   1      11.517 -18.772  -8.130  1.00  0.00    -0.346 N 
ATOM     15  C8  MOL A   1      12.943 -18.851  -8.178  1.00  0.00     0.258 C 
ATOM     16  O9  MOL A   1      13.509 -19.635  -8.985  1.00  0.00    -0.271 OA
BRANCH  15  17
ATOM     17 C10  MOL A   1      13.780 -17.993  -7.278  1.00  0.00     0.167 C 
BRANCH  17  18
ATOM     18 O11  MOL A   1      14.537 -18.801  -6.380  1.00  0.00    -0.480 OA
BRANCH  18  19
ATOM     19 C12  MOL A   1      15.893 -18.567  -6.134  1.00  0.00     0.166 A 
ATOM     20 C13  MOL A   1      16.312 -17.808  -5.017  1.00  0.00     0.012 A 
ATOM     21 C21  MOL A   1      17.687 -17.663  -4.764  1.00  0.00    -0.054 A 
ATOM     22 C22  MOL A   1      18.628 -18.221  -5.629  1.00  0.00    -0.058 A 
ATOM     23 C23  MOL A   1      18.212 -18.927  -6.758  1.00  0.00    -0.016 A 
ATOM     24 C24  MOL A   1      16.840 -19.102  -7.022  1.00  0.00     0.161 A 
BRANCH  20  25
ATOM     25 C14  MOL A   1      15.321 -17.144  -4.087  1.00  0.00     0.028 C 
BRANCH  25  26
ATOM     26 N15  MOL A   1      15.474 -15.675  -4.134  1.00  0.00    -0.287 NA
ATOM     27 C16  MOL A   1      14.930 -15.035  -2.924  1.00  0.00     0.064 C 
ATOM     28 C17  MOL A   1      13.825 -14.343  -3.697  1.00  0.00     0.272 C 
ATOM     29 F18  MOL A   1      13.948 -12.965  -3.729  1.00  0.00    -0.204 F 
ATOM     30 F19  MOL A   1      12.554 -14.786  -3.370  1.00  0.00    -0.204 F 
ATOM     31 C20  MOL A   1      14.406 -15.030  -4.918  1.00  0.00     0.064 C 
ENDBRANCH  25  26
ENDBRANCH  20  25
BRANCH  24  32
ATOM     32 O25  MOL A   1      16.381 -19.803  -8.145  1.00  0.00    -0.493 OA
ATOM     33 C26  MOL A   1      17.222 -20.495  -9.062  1.00  0.00     0.078 C 
ENDBRANCH  24  32
ENDBRANCH  18  19
ENDBRANCH  17  18
ENDBRANCH  15  17
ENDBRANCH   8  14
ENDBRANCH   1   8
TORSDOF 10
ENDMDL
MODEL 303
REMARK VINA RESULT:    -7.159      5.266      9.672
REMARK INTER + INTRA:         -12.392
REMARK INTER:                 -11.277
REMARK INTRA:                  -1.115
REMARK UNBOUND:                -1.048
REMARK  10 active torsions:
REMARK  status: ('A' for Active; 'I' for Inactive)
REMARK   1   A    between atoms:  C27_1   and   C6_8  
REMARK   2   A    between atoms:  C6_8    and   C5_9  
REMARK   3   A    between atoms:  C5_9    and   C3_12 
REMARK   4   A    between atoms:  C6_8    and   N7_14 
REMARK   5   A    between atoms:  C8_15   and  C10_17 
REMARK   6   A    between atoms: C10_17   and  O11_18 
REMARK   7   A    between atoms: O11_18   and  C12_19 
REMARK   8   A    between atoms: C13_20   and  C14_25 
REMARK   9   A    between atoms: C14_25   and  N15_26 
REMARK   10  A    between atoms: C24_24   and  O25_32 
ROOT
ATOM      1 C27  MOL A   1       6.343 -20.072  -8.633  1.00  0.00    -0.024 A 
ATOM      2 C28  MOL A   1       5.667 -19.722  -7.451  1.00  0.00    -0.057 A 
ATOM      3 C29  MOL A   1       4.393 -20.237  -7.186  1.00  0.00    -0.061 A 
ATOM      4 C30  MOL A   1       3.783 -21.104  -8.097  1.00  0.00    -0.048 A 
ATOM      5 C31  MOL A   1       4.447 -21.462  -9.276  1.00  0.00     0.018 A 
ATOM      6 Br32 MOL A   1       3.621 -22.666 -10.512  1.00  0.00    -0.051 Br
ATOM      7 C33  MOL A   1       5.718 -20.945  -9.546  1.00  0.00    -0.043 A 
ENDROOT
BRANCH   1   8
ATOM      8  C6  MOL A   1       7.689 -19.454  -8.947  1.00  0.00     0.063 C 
BRANCH   8   9
ATOM      9  C5  MOL A   1       7.919 -19.435 -10.468  1.00  0.00     0.051 C 
BRANCH   9  12
ATOM     10  C1  MOL A   1       6.714 -16.695 -12.962  1.00  0.00     0.006 C 
ATOM     11  N2  MOL A   1       7.041 -17.984 -12.369  1.00  0.00    -0.359 N 
ATOM     12  C3  MOL A   1       7.602 -18.090 -11.056  1.00  0.00     0.222 C 
ATOM     13  O4  MOL A   1       7.833 -17.050 -10.381  1.00  0.00    -0.275 OA
ENDBRANCH   9  12
ENDBRANCH   8   9
BRANCH   8  14
ATOM     14  N7  MOL A   1       8.759 -20.197  -8.272  1.00  0.00    -0.346 N 
ATOM     15  C8  MOL A   1      10.037 -19.622  -7.994  1.00  0.00     0.258 C 
ATOM     16  O9  MOL A   1      10.289 -18.437  -8.339  1.00  0.00    -0.271 OA
BRANCH  15  17
ATOM     17 C10  MOL A   1      11.087 -20.417  -7.278  1.00  0.00     0.167 C 
BRANCH  17  18
ATOM     18 O11  MOL A   1      12.295 -20.445  -8.035  1.00  0.00    -0.480 OA
BRANCH  18  19
ATOM     19 C12  MOL A   1      13.552 -20.484  -7.425  1.00  0.00     0.166 A 
ATOM     20 C13  MOL A   1      14.293 -19.301  -7.200  1.00  0.00     0.012 A 
ATOM     21 C21  MOL A   1      15.515 -19.378  -6.512  1.00  0.00    -0.054 A 
ATOM     22 C22  MOL A   1      16.017 -20.611  -6.097  1.00  0.00    -0.058 A 
ATOM     23 C23  MOL A   1      15.309 -21.783  -6.364  1.00  0.00    -0.016 A 
ATOM     24 C24  MOL A   1      14.072 -21.729  -7.034  1.00  0.00     0.161 A 
BRANCH  20  25
ATOM     25 C14  MOL A   1      13.806 -17.952  -7.683  1.00  0.00     0.028 C 
BRANCH  25  26
ATOM     26 N15  MOL A   1      13.713 -17.004  -6.554  1.00  0.00    -0.287 NA
ATOM     27 C16  MOL A   1      12.794 -15.893  -6.855  1.00  0.00     0.064 C 
ATOM     28 C17  MOL A   1      13.911 -14.868  -6.841  1.00  0.00     0.272 C 
ATOM     29 F18  MOL A   1      13.821 -13.962  -5.798  1.00  0.00    -0.204 F 
ATOM     30 F19  MOL A   1      14.147 -14.283  -8.074  1.00  0.00    -0.204 F 
ATOM     31 C20  MOL A   1      14.827 -16.040  -6.545  1.00  0.00     0.064 C 
ENDBRANCH  25  26
ENDBRANCH  20  25
BRANCH  24  32
ATOM     32 O25  MOL A   1      13.329 -22.882  -7.322  1.00  0.00    -0.493 OA
ATOM     33 C26  MOL A   1      12.571 -23.613  -6.364  1.00  0.00     0.078 C 
ENDBRANCH  24  32
ENDBRANCH  18  19
ENDBRANCH  17  18
ENDBRANCH  15  17
ENDBRANCH   8  14
ENDBRANCH   1   8
TORSDOF 10
ENDMDL
MODEL 304
REMARK VINA RESULT:    -7.156      5.215      8.713
REMARK INTER + INTRA:         -12.389
REMARK INTER:                 -10.969
REMARK INTRA:                  -1.419
REMARK UNBOUND:                -1.048
REMARK  10 active torsions:
REMARK  status: ('A' for Active; 'I' for Inactive)
REMARK   1   A    between atoms:  C27_1   and   C6_8  
REMARK   2   A    between atoms:  C6_8    and   C5_9  
REMARK   3   A    between atoms:  C5_9    and   C3_12 
REMARK   4   A    between atoms:  C6_8    and   N7_14 
REMARK   5   A    between atoms:  C8_15   and  C10_17 
REMARK   6   A    between atoms: C10_17   and  O11_18 
REMARK   7   A    between atoms: O11_18   and  C12_19 
REMARK   8   A    between atoms: C13_20   and  C14_25 
REMARK   9   A    between atoms: C14_25   and  N15_26 
REMARK   10  A    between atoms: C24_24   and  O25_32 
ROOT
ATOM      1 C27  MOL A   1      15.076 -18.645  -7.858  1.00  0.00    -0.024 A 
ATOM      2 C28  MOL A   1      16.336 -18.792  -8.467  1.00  0.00    -0.057 A 
ATOM      3 C29  MOL A   1      17.067 -17.667  -8.860  1.00  0.00    -0.061 A 
ATOM      4 C30  MOL A   1      16.549 -16.386  -8.651  1.00  0.00    -0.048 A 
ATOM      5 C31  MOL A   1      15.299 -16.225  -8.044  1.00  0.00     0.018 A 
ATOM      6 Br32 MOL A   1      14.601 -14.470  -7.739  1.00  0.00    -0.051 Br
ATOM      7 C33  MOL A   1      14.563 -17.348  -7.654  1.00  0.00    -0.043 A 
ENDROOT
BRANCH   1   8
ATOM      8  C6  MOL A   1      14.260 -19.869  -7.502  1.00  0.00     0.063 C 
BRANCH   8   9
ATOM      9  C5  MOL A   1      15.129 -21.134  -7.615  1.00  0.00     0.051 C 
BRANCH   9  12
ATOM     10  C1  MOL A   1      12.708 -23.855  -6.233  1.00  0.00     0.006 C 
ATOM     11  N2  MOL A   1      13.530 -22.658  -6.348  1.00  0.00    -0.359 N 
ATOM     12  C3  MOL A   1      14.300 -22.382  -7.523  1.00  0.00     0.222 C 
ATOM     13  O4  MOL A   1      14.283 -23.187  -8.494  1.00  0.00    -0.275 OA
ENDBRANCH   9  12
ENDBRANCH   8   9
BRANCH   8  14
ATOM     14  N7  MOL A   1      13.086 -19.969  -8.375  1.00  0.00    -0.346 N 
ATOM     15  C8  MOL A   1      11.749 -19.857  -7.883  1.00  0.00     0.258 C 
ATOM     16  O9  MOL A   1      11.538 -19.675  -6.654  1.00  0.00    -0.271 OA
BRANCH  15  17
ATOM     17 C10  MOL A   1      10.585 -19.940  -8.824  1.00  0.00     0.167 C 
BRANCH  17  18
ATOM     18 O11  MOL A   1       9.529 -20.705  -8.245  1.00  0.00    -0.480 OA
BRANCH  18  19
ATOM     19 C12  MOL A   1       8.507 -21.261  -9.018  1.00  0.00     0.166 A 
ATOM     20 C13  MOL A   1       7.297 -20.565  -9.241  1.00  0.00     0.012 A 
ATOM     21 C21  MOL A   1       6.329 -21.128 -10.089  1.00  0.00    -0.054 A 
ATOM     22 C22  MOL A   1       6.536 -22.380 -10.668  1.00  0.00    -0.058 A 
ATOM     23 C23  MOL A   1       7.710 -23.088 -10.407  1.00  0.00    -0.016 A 
ATOM     24 C24  MOL A   1       8.703 -22.535  -9.576  1.00  0.00     0.161 A 
BRANCH  20  25
ATOM     25 C14  MOL A   1       7.014 -19.230  -8.588  1.00  0.00     0.028 C 
BRANCH  25  26
ATOM     26 N15  MOL A   1       6.588 -18.242  -9.599  1.00  0.00    -0.287 NA
ATOM     27 C16  MOL A   1       7.733 -17.731 -10.373  1.00  0.00     0.064 C 
ATOM     28 C17  MOL A   1       7.581 -16.331  -9.814  1.00  0.00     0.272 C 
ATOM     29 F18  MOL A   1       7.202 -15.393 -10.759  1.00  0.00    -0.204 F 
ATOM     30 F19  MOL A   1       8.642 -15.930  -9.019  1.00  0.00    -0.204 F 
ATOM     31 C20  MOL A   1       6.417 -16.897  -9.024  1.00  0.00     0.064 C 
ENDBRANCH  25  26
ENDBRANCH  20  25
BRANCH  24  32
ATOM     32 O25  MOL A   1       9.896 -23.214  -9.288  1.00  0.00    -0.493 OA
ATOM     33 C26  MOL A   1      10.253 -24.480  -9.832  1.00  0.00     0.078 C 
ENDBRANCH  24  32
ENDBRANCH  18  19
ENDBRANCH  17  18
ENDBRANCH  15  17
ENDBRANCH   8  14
ENDBRANCH   1   8
TORSDOF 10
ENDMDL
MODEL 305
REMARK VINA RESULT:    -7.156      6.785     11.881
REMARK INTER + INTRA:         -12.388
REMARK INTER:                 -10.297
REMARK INTRA:                  -2.091
REMARK UNBOUND:                -1.048
REMARK  10 active torsions:
REMARK  status: ('A' for Active; 'I' for Inactive)
REMARK   1   A    between atoms:  C27_1   and   C6_8  
REMARK   2   A    between atoms:  C6_8    and   C5_9  
REMARK   3   A    between atoms:  C5_9    and   C3_12 
REMARK   4   A    between atoms:  C6_8    and   N7_14 
REMARK   5   A    between atoms:  C8_15   and  C10_17 
REMARK   6   A    between atoms: C10_17   and  O11_18 
REMARK   7   A    between atoms: O11_18   and  C12_19 
REMARK   8   A    between atoms: C13_20   and  C14_25 
REMARK   9   A    between atoms: C14_25   and  N15_26 
REMARK   10  A    between atoms: C24_24   and  O25_32 
ROOT
ATOM      1 C27  MOL A   1      13.361 -19.418  -7.101  1.00  0.00    -0.024 A 
ATOM      2 C28  MOL A   1      14.569 -19.250  -6.400  1.00  0.00    -0.057 A 
ATOM      3 C29  MOL A   1      15.207 -20.350  -5.815  1.00  0.00    -0.061 A 
ATOM      4 C30  MOL A   1      14.646 -21.625  -5.925  1.00  0.00    -0.048 A 
ATOM      5 C31  MOL A   1      13.447 -21.807  -6.623  1.00  0.00     0.018 A 
ATOM      6 Br32 MOL A   1      12.692 -23.556  -6.791  1.00  0.00    -0.051 Br
ATOM      7 C33  MOL A   1      12.804 -20.709  -7.204  1.00  0.00    -0.043 A 
ENDROOT
BRANCH   1   8
ATOM      8  C6  MOL A   1      12.641 -18.214  -7.668  1.00  0.00     0.063 C 
BRANCH   8   9
ATOM      9  C5  MOL A   1      11.685 -18.652  -8.792  1.00  0.00     0.051 C 
BRANCH   9  12
ATOM     10  C1  MOL A   1       8.176 -17.292  -9.799  1.00  0.00     0.006 C 
ATOM     11  N2  MOL A   1       9.420 -18.048  -9.789  1.00  0.00    -0.359 N 
ATOM     12  C3  MOL A   1      10.417 -17.848  -8.780  1.00  0.00     0.222 C 
ATOM     13  O4  MOL A   1      10.233 -16.994  -7.870  1.00  0.00    -0.275 OA
ENDBRANCH   9  12
ENDBRANCH   8   9
BRANCH   8  14
ATOM     14  N7  MOL A   1      13.609 -17.231  -8.166  1.00  0.00    -0.346 N 
ATOM     15  C8  MOL A   1      13.762 -15.936  -7.580  1.00  0.00     0.258 C 
ATOM     16  O9  MOL A   1      13.046 -15.593  -6.602  1.00  0.00    -0.271 OA
BRANCH  15  17
ATOM     17 C10  MOL A   1      14.785 -14.979  -8.113  1.00  0.00     0.167 C 
BRANCH  17  18
ATOM     18 O11  MOL A   1      15.837 -14.796  -7.168  1.00  0.00    -0.480 OA
BRANCH  18  19
ATOM     19 C12  MOL A   1      16.528 -15.874  -6.609  1.00  0.00     0.166 A 
ATOM     20 C13  MOL A   1      17.254 -16.777  -7.419  1.00  0.00     0.012 A 
ATOM     21 C21  MOL A   1      17.998 -17.800  -6.809  1.00  0.00    -0.054 A 
ATOM     22 C22  MOL A   1      17.984 -17.955  -5.422  1.00  0.00    -0.058 A 
ATOM     23 C23  MOL A   1      17.226 -17.095  -4.628  1.00  0.00    -0.016 A 
ATOM     24 C24  MOL A   1      16.488 -16.050  -5.216  1.00  0.00     0.161 A 
BRANCH  20  25
ATOM     25 C14  MOL A   1      17.250 -16.672  -8.928  1.00  0.00     0.028 C 
BRANCH  25  26
ATOM     26 N15  MOL A   1      17.800 -17.903  -9.532  1.00  0.00    -0.287 NA
ATOM     27 C16  MOL A   1      18.722 -17.598 -10.639  1.00  0.00     0.064 C 
ATOM     28 C17  MOL A   1      17.804 -18.220 -11.672  1.00  0.00     0.272 C 
ATOM     29 F18  MOL A   1      18.320 -19.362 -12.259  1.00  0.00    -0.204 F 
ATOM     30 F19  MOL A   1      17.286 -17.309 -12.578  1.00  0.00    -0.204 F 
ATOM     31 C20  MOL A   1      16.875 -18.504 -10.508  1.00  0.00     0.064 C 
ENDBRANCH  25  26
ENDBRANCH  20  25
BRANCH  24  32
ATOM     32 O25  MOL A   1      15.714 -15.164  -4.453  1.00  0.00    -0.493 OA
ATOM     33 C26  MOL A   1      15.824 -15.007  -3.042  1.00  0.00     0.078 C 
ENDBRANCH  24  32
ENDBRANCH  18  19
ENDBRANCH  17  18
ENDBRANCH  15  17
ENDBRANCH   8  14
ENDBRANCH   1   8
TORSDOF 10
ENDMDL
MODEL 306
REMARK VINA RESULT:    -7.156      6.754     10.485
REMARK INTER + INTRA:         -12.388
REMARK INTER:                 -10.860
REMARK INTRA:                  -1.527
REMARK UNBOUND:                -1.048
REMARK  10 active torsions:
REMARK  status: ('A' for Active; 'I' for Inactive)
REMARK   1   A    between atoms:  C27_1   and   C6_8  
REMARK   2   A    between atoms:  C6_8    and   C5_9  
REMARK   3   A    between atoms:  C5_9    and   C3_12 
REMARK   4   A    between atoms:  C6_8    and   N7_14 
REMARK   5   A    between atoms:  C8_15   and  C10_17 
REMARK   6   A    between atoms: C10_17   and  O11_18 
REMARK   7   A    between atoms: O11_18   and  C12_19 
REMARK   8   A    between atoms: C13_20   and  C14_25 
REMARK   9   A    between atoms: C14_25   and  N15_26 
REMARK   10  A    between atoms: C24_24   and  O25_32 
ROOT
ATOM      1 C27  MOL A   1       7.058 -19.702  -8.468  1.00  0.00    -0.024 A 
ATOM      2 C28  MOL A   1       6.123 -20.733  -8.267  1.00  0.00    -0.057 A 
ATOM      3 C29  MOL A   1       4.847 -20.444  -7.772  1.00  0.00    -0.061 A 
ATOM      4 C30  MOL A   1       4.492 -19.126  -7.474  1.00  0.00    -0.048 A 
ATOM      5 C31  MOL A   1       5.411 -18.090  -7.673  1.00  0.00     0.018 A 
ATOM      6 Br32 MOL A   1       4.917 -16.283  -7.285  1.00  0.00    -0.051 Br
ATOM      7 C33  MOL A   1       6.690 -18.376  -8.162  1.00  0.00    -0.043 A 
ENDROOT
BRANCH   1   8
ATOM      8  C6  MOL A   1       8.460 -20.031  -8.934  1.00  0.00     0.063 C 
BRANCH   8   9
ATOM      9  C5  MOL A   1       8.728 -21.538  -8.775  1.00  0.00     0.051 C 
BRANCH   9  12
ATOM     10  C1  MOL A   1      10.447 -24.062 -11.194  1.00  0.00     0.006 C 
ATOM     11  N2  MOL A   1       9.833 -23.470 -10.014  1.00  0.00    -0.359 N 
ATOM     12  C3  MOL A   1       9.367 -22.116 -10.005  1.00  0.00     0.222 C 
ATOM     13  O4  MOL A   1       9.487 -21.399 -11.035  1.00  0.00    -0.275 OA
ENDBRANCH   9  12
ENDBRANCH   8   9
BRANCH   8  14
ATOM     14  N7  MOL A   1       9.444 -19.249  -8.177  1.00  0.00    -0.346 N 
ATOM     15  C8  MOL A   1      10.470 -18.482  -8.812  1.00  0.00     0.258 C 
ATOM     16  O9  MOL A   1      10.565 -18.466 -10.068  1.00  0.00    -0.271 OA
BRANCH  15  17
ATOM     17 C10  MOL A   1      11.434 -17.680  -7.991  1.00  0.00     0.167 C 
BRANCH  17  18
ATOM     18 O11  MOL A   1      12.774 -18.088  -8.255  1.00  0.00    -0.480 OA
BRANCH  18  19
ATOM     19 C12  MOL A   1      13.771 -18.038  -7.277  1.00  0.00     0.166 A 
ATOM     20 C13  MOL A   1      14.047 -19.156  -6.456  1.00  0.00     0.012 A 
ATOM     21 C21  MOL A   1      15.109 -19.088  -5.540  1.00  0.00    -0.054 A 
ATOM     22 C22  MOL A   1      15.854 -17.917  -5.405  1.00  0.00    -0.058 A 
ATOM     23 C23  MOL A   1      15.548 -16.798  -6.180  1.00  0.00    -0.016 A 
ATOM     24 C24  MOL A   1      14.501 -16.849  -7.119  1.00  0.00     0.161 A 
BRANCH  20  25
ATOM     25 C14  MOL A   1      13.227 -20.425  -6.537  1.00  0.00     0.028 C 
BRANCH  25  26
ATOM     26 N15  MOL A   1      13.456 -21.106  -7.828  1.00  0.00    -0.287 NA
ATOM     27 C16  MOL A   1      12.536 -22.241  -8.012  1.00  0.00     0.064 C 
ATOM     28 C17  MOL A   1      13.662 -23.255  -7.962  1.00  0.00     0.272 C 
ATOM     29 F18  MOL A   1      13.870 -23.914  -9.162  1.00  0.00    -0.204 F 
ATOM     30 F19  MOL A   1      13.606 -24.097  -6.863  1.00  0.00    -0.204 F 
ATOM     31 C20  MOL A   1      14.575 -22.062  -7.761  1.00  0.00     0.064 C 
ENDBRANCH  25  26
ENDBRANCH  20  25
BRANCH  24  32
ATOM     32 O25  MOL A   1      14.160 -15.746  -7.916  1.00  0.00    -0.493 OA
ATOM     33 C26  MOL A   1      14.949 -14.568  -8.040  1.00  0.00     0.078 C 
ENDBRANCH  24  32
ENDBRANCH  18  19
ENDBRANCH  17  18
ENDBRANCH  15  17
ENDBRANCH   8  14
ENDBRANCH   1   8
TORSDOF 10
ENDMDL
MODEL 307
REMARK VINA RESULT:    -7.154     10.856     13.054
REMARK INTER + INTRA:         -12.385
REMARK INTER:                 -10.263
REMARK INTRA:                  -2.122
REMARK UNBOUND:                -1.048
REMARK  10 active torsions:
REMARK  status: ('A' for Active; 'I' for Inactive)
REMARK   1   A    between atoms:  C27_1   and   C6_8  
REMARK   2   A    between atoms:  C6_8    and   C5_9  
REMARK   3   A    between atoms:  C5_9    and   C3_12 
REMARK   4   A    between atoms:  C6_8    and   N7_14 
REMARK   5   A    between atoms:  C8_15   and  C10_17 
REMARK   6   A    between atoms: C10_17   and  O11_18 
REMARK   7   A    between atoms: O11_18   and  C12_19 
REMARK   8   A    between atoms: C13_20   and  C14_25 
REMARK   9   A    between atoms: C14_25   and  N15_26 
REMARK   10  A    between atoms: C24_24   and  O25_32 
ROOT
ATOM      1 C27  MOL A   1      18.144 -20.629  -6.782  1.00  0.00    -0.024 A 
ATOM      2 C28  MOL A   1      19.197 -19.712  -6.953  1.00  0.00    -0.057 A 
ATOM      3 C29  MOL A   1      20.407 -20.123  -7.524  1.00  0.00    -0.061 A 
ATOM      4 C30  MOL A   1      20.577 -21.450  -7.928  1.00  0.00    -0.048 A 
ATOM      5 C31  MOL A   1      19.536 -22.371  -7.766  1.00  0.00     0.018 A 
ATOM      6 Br32 MOL A   1      19.762 -24.182  -8.340  1.00  0.00    -0.051 Br
ATOM      7 C33  MOL A   1      18.327 -21.965  -7.191  1.00  0.00    -0.043 A 
ENDROOT
BRANCH   1   8
ATOM      8  C6  MOL A   1      16.866 -20.194  -6.097  1.00  0.00     0.063 C 
BRANCH   8   9
ATOM      9  C5  MOL A   1      15.837 -19.734  -7.145  1.00  0.00     0.051 C 
BRANCH   9  12
ATOM     10  C1  MOL A   1      13.113 -22.278  -6.011  1.00  0.00     0.006 C 
ATOM     11  N2  MOL A   1      14.398 -21.638  -6.254  1.00  0.00    -0.359 N 
ATOM     12  C3  MOL A   1      14.497 -20.374  -6.919  1.00  0.00     0.222 C 
ATOM     13  O4  MOL A   1      13.455 -19.786  -7.318  1.00  0.00    -0.275 OA
ENDBRANCH   9  12
ENDBRANCH   8   9
BRANCH   8  14
ATOM     14  N7  MOL A   1      17.143 -19.119  -5.139  1.00  0.00    -0.346 N 
ATOM     15  C8  MOL A   1      16.490 -19.032  -3.870  1.00  0.00     0.258 C 
ATOM     16  O9  MOL A   1      15.632 -19.892  -3.538  1.00  0.00    -0.271 OA
BRANCH  15  17
ATOM     17 C10  MOL A   1      16.830 -17.926  -2.917  1.00  0.00     0.167 C 
BRANCH  17  18
ATOM     18 O11  MOL A   1      16.876 -16.675  -3.600  1.00  0.00    -0.480 OA
BRANCH  18  19
ATOM     19 C12  MOL A   1      15.880 -15.708  -3.444  1.00  0.00     0.166 A 
ATOM     20 C13  MOL A   1      14.870 -15.535  -4.419  1.00  0.00     0.012 A 
ATOM     21 C21  MOL A   1      13.843 -14.606  -4.184  1.00  0.00    -0.054 A 
ATOM     22 C22  MOL A   1      13.843 -13.828  -3.027  1.00  0.00    -0.058 A 
ATOM     23 C23  MOL A   1      14.868 -13.965  -2.090  1.00  0.00    -0.016 A 
ATOM     24 C24  MOL A   1      15.896 -14.903  -2.293  1.00  0.00     0.161 A 
BRANCH  20  25
ATOM     25 C14  MOL A   1      14.867 -16.323  -5.710  1.00  0.00     0.028 C 
BRANCH  25  26
ATOM     26 N15  MOL A   1      15.227 -15.451  -6.847  1.00  0.00    -0.287 NA
ATOM     27 C16  MOL A   1      15.329 -16.213  -8.103  1.00  0.00     0.064 C 
ATOM     28 C17  MOL A   1      16.820 -15.966  -8.218  1.00  0.00     0.272 C 
ATOM     29 F18  MOL A   1      17.169 -15.167  -9.293  1.00  0.00    -0.204 F 
ATOM     30 F19  MOL A   1      17.586 -17.114  -8.100  1.00  0.00    -0.204 F 
ATOM     31 C20  MOL A   1      16.677 -15.200  -6.917  1.00  0.00     0.064 C 
ENDBRANCH  25  26
ENDBRANCH  20  25
BRANCH  24  32
ATOM     32 O25  MOL A   1      16.944 -15.071  -1.377  1.00  0.00    -0.493 OA
ATOM     33 C26  MOL A   1      16.910 -14.628  -0.024  1.00  0.00     0.078 C 
ENDBRANCH  24  32
ENDBRANCH  18  19
ENDBRANCH  17  18
ENDBRANCH  15  17
ENDBRANCH   8  14
ENDBRANCH   1   8
TORSDOF 10
ENDMDL
MODEL 308
REMARK VINA RESULT:    -7.149      6.234     10.016
REMARK INTER + INTRA:         -12.377
REMARK INTER:                 -11.943
REMARK INTRA:                  -0.434
REMARK UNBOUND:                -1.048
REMARK  10 active torsions:
REMARK  status: ('A' for Active; 'I' for Inactive)
REMARK   1   A    between atoms:  C27_1   and   C6_8  
REMARK   2   A    between atoms:  C6_8    and   C5_9  
REMARK   3   A    between atoms:  C5_9    and   C3_12 
REMARK   4   A    between atoms:  C6_8    and   N7_14 
REMARK   5   A    between atoms:  C8_15   and  C10_17 
REMARK   6   A    between atoms: C10_17   and  O11_18 
REMARK   7   A    between atoms: O11_18   and  C12_19 
REMARK   8   A    between atoms: C13_20   and  C14_25 
REMARK   9   A    between atoms: C14_25   and  N15_26 
REMARK   10  A    between atoms: C24_24   and  O25_32 
ROOT
ATOM      1 C27  MOL A   1       7.110 -18.797  -8.615  1.00  0.00    -0.024 A 
ATOM      2 C28  MOL A   1       6.336 -19.965  -8.497  1.00  0.00    -0.057 A 
ATOM      3 C29  MOL A   1       5.077 -19.921  -7.889  1.00  0.00    -0.061 A 
ATOM      4 C30  MOL A   1       4.579 -18.713  -7.393  1.00  0.00    -0.048 A 
ATOM      5 C31  MOL A   1       5.338 -17.543  -7.507  1.00  0.00     0.018 A 
ATOM      6 Br32 MOL A   1       4.646 -15.885  -6.848  1.00  0.00    -0.051 Br
ATOM      7 C33  MOL A   1       6.599 -17.584  -8.110  1.00  0.00    -0.043 A 
ENDROOT
BRANCH   1   8
ATOM      8  C6  MOL A   1       8.501 -18.866  -9.208  1.00  0.00     0.063 C 
BRANCH   8   9
ATOM      9  C5  MOL A   1       9.178 -20.191  -8.811  1.00  0.00     0.051 C 
BRANCH   9  12
ATOM     10  C1  MOL A   1       9.845 -23.310 -11.047  1.00  0.00     0.006 C 
ATOM     11  N2  MOL A   1       9.565 -22.462  -9.897  1.00  0.00    -0.359 N 
ATOM     12  C3  MOL A   1       9.478 -21.038 -10.014  1.00  0.00     0.222 C 
ATOM     13  O4  MOL A   1       9.650 -20.483 -11.134  1.00  0.00    -0.275 OA
ENDBRANCH   9  12
ENDBRANCH   8   9
BRANCH   8  14
ATOM     14  N7  MOL A   1       9.302 -17.722  -8.760  1.00  0.00    -0.346 N 
ATOM     15  C8  MOL A   1      10.313 -17.837  -7.756  1.00  0.00     0.258 C 
ATOM     16  O9  MOL A   1      10.541 -18.949  -7.209  1.00  0.00    -0.271 OA
BRANCH  15  17
ATOM     17 C10  MOL A   1      11.122 -16.641  -7.354  1.00  0.00     0.167 C 
BRANCH  17  18
ATOM     18 O11  MOL A   1      12.329 -17.047  -6.714  1.00  0.00    -0.480 OA
BRANCH  18  19
ATOM     19 C12  MOL A   1      13.586 -16.658  -7.186  1.00  0.00     0.166 A 
ATOM     20 C13  MOL A   1      14.306 -17.465  -8.096  1.00  0.00     0.012 A 
ATOM     21 C21  MOL A   1      15.530 -16.999  -8.606  1.00  0.00    -0.054 A 
ATOM     22 C22  MOL A   1      16.052 -15.776  -8.184  1.00  0.00    -0.058 A 
ATOM     23 C23  MOL A   1      15.364 -15.005  -7.248  1.00  0.00    -0.016 A 
ATOM     24 C24  MOL A   1      14.127 -15.442  -6.738  1.00  0.00     0.161 A 
BRANCH  20  25
ATOM     25 C14  MOL A   1      13.797 -18.820  -8.535  1.00  0.00     0.028 C 
BRANCH  25  26
ATOM     26 N15  MOL A   1      14.591 -19.897  -7.910  1.00  0.00    -0.287 NA
ATOM     27 C16  MOL A   1      13.813 -21.142  -7.786  1.00  0.00     0.064 C 
ATOM     28 C17  MOL A   1      13.818 -21.079  -6.271  1.00  0.00     0.272 C 
ATOM     29 F18  MOL A   1      14.542 -22.097  -5.675  1.00  0.00    -0.204 F 
ATOM     30 F19  MOL A   1      12.563 -20.885  -5.717  1.00  0.00    -0.204 F 
ATOM     31 C20  MOL A   1      14.606 -19.795  -6.441  1.00  0.00     0.064 C 
ENDBRANCH  25  26
ENDBRANCH  20  25
BRANCH  24  32
ATOM     32 O25  MOL A   1      13.404 -14.697  -5.795  1.00  0.00    -0.493 OA
ATOM     33 C26  MOL A   1      13.859 -14.406  -4.478  1.00  0.00     0.078 C 
ENDBRANCH  24  32
ENDBRANCH  18  19
ENDBRANCH  17  18
ENDBRANCH  15  17
ENDBRANCH   8  14
ENDBRANCH   1   8
TORSDOF 10
ENDMDL
MODEL 309
REMARK VINA RESULT:    -7.148      6.527     10.547
REMARK INTER + INTRA:         -12.376
REMARK INTER:                 -10.931
REMARK INTRA:                  -1.445
REMARK UNBOUND:                -1.048
REMARK  10 active torsions:
REMARK  status: ('A' for Active; 'I' for Inactive)
REMARK   1   A    between atoms:  C27_1   and   C6_8  
REMARK   2   A    between atoms:  C6_8    and   C5_9  
REMARK   3   A    between atoms:  C5_9    and   C3_12 
REMARK   4   A    between atoms:  C6_8    and   N7_14 
REMARK   5   A    between atoms:  C8_15   and  C10_17 
REMARK   6   A    between atoms: C10_17   and  O11_18 
REMARK   7   A    between atoms: O11_18   and  C12_19 
REMARK   8   A    between atoms: C13_20   and  C14_25 
REMARK   9   A    between atoms: C14_25   and  N15_26 
REMARK   10  A    between atoms: C24_24   and  O25_32 
ROOT
ATOM      1 C27  MOL A   1      17.663 -17.402  -9.201  1.00  0.00    -0.024 A 
ATOM      2 C28  MOL A   1      17.947 -16.663 -10.364  1.00  0.00    -0.057 A 
ATOM      3 C29  MOL A   1      18.943 -17.092 -11.249  1.00  0.00    -0.061 A 
ATOM      4 C30  MOL A   1      19.664 -18.259 -10.982  1.00  0.00    -0.048 A 
ATOM      5 C31  MOL A   1      19.389 -19.005  -9.830  1.00  0.00     0.018 A 
ATOM      6 Br32 MOL A   1      20.361 -20.614  -9.476  1.00  0.00    -0.051 Br
ATOM      7 C33  MOL A   1      18.398 -18.577  -8.941  1.00  0.00    -0.043 A 
ENDROOT
BRANCH   1   8
ATOM      8  C6  MOL A   1      16.636 -16.894  -8.213  1.00  0.00     0.063 C 
BRANCH   8   9
ATOM      9  C5  MOL A   1      17.078 -17.223  -6.776  1.00  0.00     0.051 C 
BRANCH   9  12
ATOM     10  C1  MOL A   1      15.813 -14.908  -3.910  1.00  0.00     0.006 C 
ATOM     11  N2  MOL A   1      15.970 -16.041  -4.811  1.00  0.00    -0.359 N 
ATOM     12  C3  MOL A   1      16.933 -16.035  -5.869  1.00  0.00     0.222 C 
ATOM     13  O4  MOL A   1      17.672 -15.028  -6.046  1.00  0.00    -0.275 OA
ENDBRANCH   9  12
ENDBRANCH   8   9
BRANCH   8  14
ATOM     14  N7  MOL A   1      15.323 -17.483  -8.497  1.00  0.00    -0.346 N 
ATOM     15  C8  MOL A   1      14.101 -16.764  -8.312  1.00  0.00     0.258 C 
ATOM     16  O9  MOL A   1      14.120 -15.581  -7.880  1.00  0.00    -0.271 OA
BRANCH  15  17
ATOM     17 C10  MOL A   1      12.787 -17.405  -8.642  1.00  0.00     0.167 C 
BRANCH  17  18
ATOM     18 O11  MOL A   1      12.350 -18.232  -7.566  1.00  0.00    -0.480 OA
BRANCH  18  19
ATOM     19 C12  MOL A   1      12.056 -19.586  -7.743  1.00  0.00     0.166 A 
ATOM     20 C13  MOL A   1      10.824 -20.001  -8.299  1.00  0.00     0.012 A 
ATOM     21 C21  MOL A   1      10.603 -21.368  -8.533  1.00  0.00    -0.054 A 
ATOM     22 C22  MOL A   1      11.566 -22.312  -8.177  1.00  0.00    -0.058 A 
ATOM     23 C23  MOL A   1      12.761 -21.905  -7.582  1.00  0.00    -0.016 A 
ATOM     24 C24  MOL A   1      13.013 -20.539  -7.356  1.00  0.00     0.161 A 
BRANCH  20  25
ATOM     25 C14  MOL A   1       9.735 -19.011  -8.649  1.00  0.00     0.028 C 
BRANCH  25  26
ATOM     26 N15  MOL A   1       9.012 -19.446  -9.861  1.00  0.00    -0.287 NA
ATOM     27 C16  MOL A   1       9.307 -18.574 -11.010  1.00  0.00     0.064 C 
ATOM     28 C17  MOL A   1       7.883 -18.056 -11.076  1.00  0.00     0.272 C 
ATOM     29 F18  MOL A   1       7.204 -18.442 -12.218  1.00  0.00    -0.204 F 
ATOM     30 F19  MOL A   1       7.766 -16.708 -10.781  1.00  0.00    -0.204 F 
ATOM     31 C20  MOL A   1       7.623 -18.957  -9.885  1.00  0.00     0.064 C 
ENDBRANCH  25  26
ENDBRANCH  20  25
BRANCH  24  32
ATOM     32 O25  MOL A   1      14.200 -20.089  -6.761  1.00  0.00    -0.493 OA
ATOM     33 C26  MOL A   1      15.178 -20.938  -6.170  1.00  0.00     0.078 C 
ENDBRANCH  24  32
ENDBRANCH  18  19
ENDBRANCH  17  18
ENDBRANCH  15  17
ENDBRANCH   8  14
ENDBRANCH   1   8
TORSDOF 10
ENDMDL
MODEL 310
REMARK VINA RESULT:    -7.148      6.418     11.027
REMARK INTER + INTRA:         -12.375
REMARK INTER:                 -11.355
REMARK INTRA:                  -1.020
REMARK UNBOUND:                -1.048
REMARK  10 active torsions:
REMARK  status: ('A' for Active; 'I' for Inactive)
REMARK   1   A    between atoms:  C27_1   and   C6_8  
REMARK   2   A    between atoms:  C6_8    and   C5_9  
REMARK   3   A    between atoms:  C5_9    and   C3_12 
REMARK   4   A    between atoms:  C6_8    and   N7_14 
REMARK   5   A    between atoms:  C8_15   and  C10_17 
REMARK   6   A    between atoms: C10_17   and  O11_18 
REMARK   7   A    between atoms: O11_18   and  C12_19 
REMARK   8   A    between atoms: C13_20   and  C14_25 
REMARK   9   A    between atoms: C14_25   and  N15_26 
REMARK   10  A    between atoms: C24_24   and  O25_32 
ROOT
ATOM      1 C27  MOL A   1       8.542 -20.175  -9.353  1.00  0.00    -0.024 A 
ATOM      2 C28  MOL A   1       9.435 -21.255  -9.481  1.00  0.00    -0.057 A 
ATOM      3 C29  MOL A   1       8.960 -22.533  -9.794  1.00  0.00    -0.061 A 
ATOM      4 C30  MOL A   1       7.592 -22.746  -9.982  1.00  0.00    -0.048 A 
ATOM      5 C31  MOL A   1       6.693 -21.681  -9.861  1.00  0.00     0.018 A 
ATOM      6 Br32 MOL A   1       4.822 -21.969 -10.141  1.00  0.00    -0.051 Br
ATOM      7 C33  MOL A   1       7.163 -20.402  -9.543  1.00  0.00    -0.043 A 
ENDROOT
BRANCH   1   8
ATOM      8  C6  MOL A   1       9.055 -18.812  -8.944  1.00  0.00     0.063 C 
BRANCH   8   9
ATOM      9  C5  MOL A   1       8.159 -17.710  -9.539  1.00  0.00     0.051 C 
BRANCH   9  12
ATOM     10  C1  MOL A   1       5.459 -16.383  -7.065  1.00  0.00     0.006 C 
ATOM     11  N2  MOL A   1       6.129 -17.144  -8.110  1.00  0.00    -0.359 N 
ATOM     12  C3  MOL A   1       7.494 -16.901  -8.464  1.00  0.00     0.222 C 
ATOM     13  O4  MOL A   1       8.151 -16.002  -7.871  1.00  0.00    -0.275 OA
ENDBRANCH   9  12
ENDBRANCH   8   9
BRANCH   8  14
ATOM     14  N7  MOL A   1      10.445 -18.640  -9.380  1.00  0.00    -0.346 N 
ATOM     15  C8  MOL A   1      11.418 -17.951  -8.593  1.00  0.00     0.258 C 
ATOM     16  O9  MOL A   1      11.099 -17.453  -7.481  1.00  0.00    -0.271 OA
BRANCH  15  17
ATOM     17 C10  MOL A   1      12.833 -17.826  -9.075  1.00  0.00     0.167 C 
BRANCH  17  18
ATOM     18 O11  MOL A   1      13.745 -17.994  -7.992  1.00  0.00    -0.480 OA
BRANCH  18  19
ATOM     19 C12  MOL A   1      14.867 -17.175  -7.835  1.00  0.00     0.166 A 
ATOM     20 C13  MOL A   1      16.062 -17.427  -8.548  1.00  0.00     0.012 A 
ATOM     21 C21  MOL A   1      17.138 -16.533  -8.419  1.00  0.00    -0.054 A 
ATOM     22 C22  MOL A   1      17.048 -15.436  -7.562  1.00  0.00    -0.058 A 
ATOM     23 C23  MOL A   1      15.887 -15.218  -6.821  1.00  0.00    -0.016 A 
ATOM     24 C24  MOL A   1      14.788 -16.088  -6.949  1.00  0.00     0.161 A 
BRANCH  20  25
ATOM     25 C14  MOL A   1      16.214 -18.635  -9.445  1.00  0.00     0.028 C 
BRANCH  25  26
ATOM     26 N15  MOL A   1      16.480 -19.845  -8.641  1.00  0.00    -0.287 NA
ATOM     27 C16  MOL A   1      17.266 -19.532  -7.435  1.00  0.00     0.064 C 
ATOM     28 C17  MOL A   1      18.464 -20.323  -7.922  1.00  0.00     0.272 C 
ATOM     29 F18  MOL A   1      18.733 -21.448  -7.161  1.00  0.00    -0.204 F 
ATOM     30 F19  MOL A   1      19.578 -19.543  -8.184  1.00  0.00    -0.204 F 
ATOM     31 C20  MOL A   1      17.628 -20.612  -9.153  1.00  0.00     0.064 C 
ENDBRANCH  25  26
ENDBRANCH  20  25
BRANCH  24  32
ATOM     32 O25  MOL A   1      13.603 -15.905  -6.222  1.00  0.00    -0.493 OA
ATOM     33 C26  MOL A   1      13.203 -14.673  -5.631  1.00  0.00     0.078 C 
ENDBRANCH  24  32
ENDBRANCH  18  19
ENDBRANCH  17  18
ENDBRANCH  15  17
ENDBRANCH   8  14
ENDBRANCH   1   8
TORSDOF 10
ENDMDL
MODEL 311
REMARK VINA RESULT:    -7.145     11.545     13.755
REMARK INTER + INTRA:         -12.370
REMARK INTER:                 -10.706
REMARK INTRA:                  -1.664
REMARK UNBOUND:                -1.048
REMARK  10 active torsions:
REMARK  status: ('A' for Active; 'I' for Inactive)
REMARK   1   A    between atoms:  C27_1   and   C6_8  
REMARK   2   A    between atoms:  C6_8    and   C5_9  
REMARK   3   A    between atoms:  C5_9    and   C3_12 
REMARK   4   A    between atoms:  C6_8    and   N7_14 
REMARK   5   A    between atoms:  C8_15   and  C10_17 
REMARK   6   A    between atoms: C10_17   and  O11_18 
REMARK   7   A    between atoms: O11_18   and  C12_19 
REMARK   8   A    between atoms: C13_20   and  C14_25 
REMARK   9   A    between atoms: C14_25   and  N15_26 
REMARK   10  A    between atoms: C24_24   and  O25_32 
ROOT
ATOM      1 C27  MOL A   1      15.210 -20.690  -0.126  1.00  0.00    -0.024 A 
ATOM      2 C28  MOL A   1      13.879 -21.078   0.115  1.00  0.00    -0.057 A 
ATOM      3 C29  MOL A   1      13.600 -22.306   0.724  1.00  0.00    -0.061 A 
ATOM      4 C30  MOL A   1      14.643 -23.157   1.098  1.00  0.00    -0.048 A 
ATOM      5 C31  MOL A   1      15.972 -22.781   0.867  1.00  0.00     0.018 A 
ATOM      6 Br32 MOL A   1      17.400 -23.937   1.400  1.00  0.00    -0.051 Br
ATOM      7 C33  MOL A   1      16.255 -21.557   0.253  1.00  0.00    -0.043 A 
ENDROOT
BRANCH   1   8
ATOM      8  C6  MOL A   1      15.501 -19.394  -0.851  1.00  0.00     0.063 C 
BRANCH   8   9
ATOM      9  C5  MOL A   1      14.353 -18.394  -0.626  1.00  0.00     0.051 C 
BRANCH   9  12
ATOM     10  C1  MOL A   1      14.306 -14.981   1.251  1.00  0.00     0.006 C 
ATOM     11  N2  MOL A   1      13.889 -16.159   0.505  1.00  0.00    -0.359 N 
ATOM     12  C3  MOL A   1      14.816 -17.185   0.135  1.00  0.00     0.222 C 
ATOM     13  O4  MOL A   1      16.033 -17.081   0.449  1.00  0.00    -0.275 OA
ENDBRANCH   9  12
ENDBRANCH   8   9
BRANCH   8  14
ATOM     14  N7  MOL A   1      15.694 -19.645  -2.284  1.00  0.00    -0.346 N 
ATOM     15  C8  MOL A   1      16.501 -18.803  -3.110  1.00  0.00     0.258 C 
ATOM     16  O9  MOL A   1      17.074 -17.794  -2.621  1.00  0.00    -0.271 OA
BRANCH  15  17
ATOM     17 C10  MOL A   1      16.685 -19.121  -4.564  1.00  0.00     0.167 C 
BRANCH  17  18
ATOM     18 O11  MOL A   1      17.640 -18.238  -5.150  1.00  0.00    -0.480 OA
BRANCH  18  19
ATOM     19 C12  MOL A   1      17.423 -17.630  -6.389  1.00  0.00     0.166 A 
ATOM     20 C13  MOL A   1      16.865 -16.334  -6.479  1.00  0.00     0.012 A 
ATOM     21 C21  MOL A   1      16.738 -15.729  -7.741  1.00  0.00    -0.054 A 
ATOM     22 C22  MOL A   1      17.113 -16.415  -8.896  1.00  0.00    -0.058 A 
ATOM     23 C23  MOL A   1      17.617 -17.712  -8.809  1.00  0.00    -0.016 A 
ATOM     24 C24  MOL A   1      17.772 -18.332  -7.554  1.00  0.00     0.161 A 
BRANCH  20  25
ATOM     25 C14  MOL A   1      16.398 -15.580  -5.254  1.00  0.00     0.028 C 
BRANCH  25  26
ATOM     26 N15  MOL A   1      14.990 -15.911  -4.950  1.00  0.00    -0.287 NA
ATOM     27 C16  MOL A   1      14.084 -14.808  -5.313  1.00  0.00     0.064 C 
ATOM     28 C17  MOL A   1      13.706 -14.546  -3.869  1.00  0.00     0.272 C 
ATOM     29 F18  MOL A   1      12.383 -14.833  -3.580  1.00  0.00    -0.204 F 
ATOM     30 F19  MOL A   1      14.129 -13.314  -3.396  1.00  0.00    -0.204 F 
ATOM     31 C20  MOL A   1      14.657 -15.678  -3.534  1.00  0.00     0.064 C 
ENDBRANCH  25  26
ENDBRANCH  20  25
BRANCH  24  32
ATOM     32 O25  MOL A   1      18.273 -19.635  -7.423  1.00  0.00    -0.493 OA
ATOM     33 C26  MOL A   1      17.557 -20.813  -7.778  1.00  0.00     0.078 C 
ENDBRANCH  24  32
ENDBRANCH  18  19
ENDBRANCH  17  18
ENDBRANCH  15  17
ENDBRANCH   8  14
ENDBRANCH   1   8
TORSDOF 10
ENDMDL
MODEL 312
REMARK VINA RESULT:    -7.140      6.868     11.002
REMARK INTER + INTRA:         -12.362
REMARK INTER:                 -10.794
REMARK INTRA:                  -1.568
REMARK UNBOUND:                -1.048
REMARK  10 active torsions:
REMARK  status: ('A' for Active; 'I' for Inactive)
REMARK   1   A    between atoms:  C27_1   and   C6_8  
REMARK   2   A    between atoms:  C6_8    and   C5_9  
REMARK   3   A    between atoms:  C5_9    and   C3_12 
REMARK   4   A    between atoms:  C6_8    and   N7_14 
REMARK   5   A    between atoms:  C8_15   and  C10_17 
REMARK   6   A    between atoms: C10_17   and  O11_18 
REMARK   7   A    between atoms: O11_18   and  C12_19 
REMARK   8   A    between atoms: C13_20   and  C14_25 
REMARK   9   A    between atoms: C14_25   and  N15_26 
REMARK   10  A    between atoms: C24_24   and  O25_32 
ROOT
ATOM      1 C27  MOL A   1       9.736 -18.578  -9.360  1.00  0.00    -0.024 A 
ATOM      2 C28  MOL A   1       9.573 -18.652 -10.755  1.00  0.00    -0.057 A 
ATOM      3 C29  MOL A   1       8.391 -18.202 -11.354  1.00  0.00    -0.061 A 
ATOM      4 C30  MOL A   1       7.363 -17.675 -10.568  1.00  0.00    -0.048 A 
ATOM      5 C31  MOL A   1       7.514 -17.592  -9.179  1.00  0.00     0.018 A 
ATOM      6 Br32 MOL A   1       6.115 -16.850  -8.106  1.00  0.00    -0.051 Br
ATOM      7 C33  MOL A   1       8.692 -18.046  -8.576  1.00  0.00    -0.043 A 
ENDROOT
BRANCH   1   8
ATOM      8  C6  MOL A   1      10.987 -19.133  -8.713  1.00  0.00     0.063 C 
BRANCH   8   9
ATOM      9  C5  MOL A   1      10.626 -20.316  -7.797  1.00  0.00     0.051 C 
BRANCH   9  12
ATOM     10  C1  MOL A   1      13.658 -21.529  -5.673  1.00  0.00     0.006 C 
ATOM     11  N2  MOL A   1      12.477 -20.801  -6.117  1.00  0.00    -0.359 N 
ATOM     12  C3  MOL A   1      11.849 -21.077  -7.373  1.00  0.00     0.222 C 
ATOM     13  O4  MOL A   1      12.320 -21.967  -8.134  1.00  0.00    -0.275 OA
ENDBRANCH   9  12
ENDBRANCH   8   9
BRANCH   8  14
ATOM     14  N7  MOL A   1      11.675 -18.084  -7.954  1.00  0.00    -0.346 N 
ATOM     15  C8  MOL A   1      13.046 -17.746  -8.177  1.00  0.00     0.258 C 
ATOM     16  O9  MOL A   1      13.718 -18.362  -9.046  1.00  0.00    -0.271 OA
BRANCH  15  17
ATOM     17 C10  MOL A   1      13.694 -16.646  -7.390  1.00  0.00     0.167 C 
BRANCH  17  18
ATOM     18 O11  MOL A   1      14.270 -17.162  -6.192  1.00  0.00    -0.480 OA
BRANCH  18  19
ATOM     19 C12  MOL A   1      15.433 -16.622  -5.636  1.00  0.00     0.166 A 
ATOM     20 C13  MOL A   1      16.711 -17.000  -6.107  1.00  0.00     0.012 A 
ATOM     21 C21  MOL A   1      17.850 -16.373  -5.574  1.00  0.00    -0.054 A 
ATOM     22 C22  MOL A   1      17.727 -15.425  -4.559  1.00  0.00    -0.058 A 
ATOM     23 C23  MOL A   1      16.467 -15.091  -4.060  1.00  0.00    -0.016 A 
ATOM     24 C24  MOL A   1      15.310 -15.691  -4.593  1.00  0.00     0.161 A 
BRANCH  20  25
ATOM     25 C14  MOL A   1      16.887 -18.062  -7.170  1.00  0.00     0.028 C 
BRANCH  25  26
ATOM     26 N15  MOL A   1      17.844 -17.608  -8.200  1.00  0.00    -0.287 NA
ATOM     27 C16  MOL A   1      17.177 -16.814  -9.246  1.00  0.00     0.064 C 
ATOM     28 C17  MOL A   1      17.448 -17.857 -10.312  1.00  0.00     0.272 C 
ATOM     29 F18  MOL A   1      18.328 -17.433 -11.293  1.00  0.00    -0.204 F 
ATOM     30 F19  MOL A   1      16.303 -18.459 -10.807  1.00  0.00    -0.204 F 
ATOM     31 C20  MOL A   1      18.115 -18.650  -9.205  1.00  0.00     0.064 C 
ENDBRANCH  25  26
ENDBRANCH  20  25
BRANCH  24  32
ATOM     32 O25  MOL A   1      14.027 -15.383  -4.119  1.00  0.00    -0.493 OA
ATOM     33 C26  MOL A   1      13.701 -14.214  -3.375  1.00  0.00     0.078 C 
ENDBRANCH  24  32
ENDBRANCH  18  19
ENDBRANCH  17  18
ENDBRANCH  15  17
ENDBRANCH   8  14
ENDBRANCH   1   8
TORSDOF 10
ENDMDL
MODEL 313
REMARK VINA RESULT:    -7.139      3.509      5.450
REMARK INTER + INTRA:         -12.362
REMARK INTER:                 -11.254
REMARK INTRA:                  -1.108
REMARK UNBOUND:                -1.048
REMARK  10 active torsions:
REMARK  status: ('A' for Active; 'I' for Inactive)
REMARK   1   A    between atoms:  C27_1   and   C6_8  
REMARK   2   A    between atoms:  C6_8    and   C5_9  
REMARK   3   A    between atoms:  C5_9    and   C3_12 
REMARK   4   A    between atoms:  C6_8    and   N7_14 
REMARK   5   A    between atoms:  C8_15   and  C10_17 
REMARK   6   A    between atoms: C10_17   and  O11_18 
REMARK   7   A    between atoms: O11_18   and  C12_19 
REMARK   8   A    between atoms: C13_20   and  C14_25 
REMARK   9   A    between atoms: C14_25   and  N15_26 
REMARK   10  A    between atoms: C24_24   and  O25_32 
ROOT
ATOM      1 C27  MOL A   1       8.975 -18.598  -9.998  1.00  0.00    -0.024 A 
ATOM      2 C28  MOL A   1       9.441 -18.966 -11.274  1.00  0.00    -0.057 A 
ATOM      3 C29  MOL A   1      10.806 -18.904 -11.573  1.00  0.00    -0.061 A 
ATOM      4 C30  MOL A   1      11.718 -18.473 -10.605  1.00  0.00    -0.048 A 
ATOM      5 C31  MOL A   1      11.267 -18.107  -9.332  1.00  0.00     0.018 A 
ATOM      6 Br32 MOL A   1      12.518 -17.540  -8.000  1.00  0.00    -0.051 Br
ATOM      7 C33  MOL A   1       9.903 -18.164  -9.030  1.00  0.00    -0.043 A 
ENDROOT
BRANCH   1   8
ATOM      8  C6  MOL A   1       7.490 -18.599  -9.706  1.00  0.00     0.063 C 
BRANCH   8   9
ATOM      9  C5  MOL A   1       6.971 -20.046  -9.619  1.00  0.00     0.051 C 
BRANCH   9  12
ATOM     10  C1  MOL A   1       4.473 -21.682  -7.117  1.00  0.00     0.006 C 
ATOM     11  N2  MOL A   1       5.448 -21.496  -8.182  1.00  0.00    -0.359 N 
ATOM     12  C3  MOL A   1       5.958 -20.203  -8.522  1.00  0.00     0.222 C 
ATOM     13  O4  MOL A   1       5.561 -19.182  -7.896  1.00  0.00    -0.275 OA
ENDBRANCH   9  12
ENDBRANCH   8   9
BRANCH   8  14
ATOM     14  N7  MOL A   1       6.767 -17.853 -10.741  1.00  0.00    -0.346 N 
ATOM     15  C8  MOL A   1       6.812 -16.427 -10.834  1.00  0.00     0.258 C 
ATOM     16  O9  MOL A   1       7.481 -15.757 -10.003  1.00  0.00    -0.271 OA
BRANCH  15  17
ATOM     17 C10  MOL A   1       6.075 -15.715 -11.928  1.00  0.00     0.167 C 
BRANCH  17  18
ATOM     18 O11  MOL A   1       5.674 -14.417 -11.497  1.00  0.00    -0.480 OA
BRANCH  18  19
ATOM     19 C12  MOL A   1       4.329 -14.051 -11.398  1.00  0.00     0.166 A 
ATOM     20 C13  MOL A   1       3.563 -14.387 -10.258  1.00  0.00     0.012 A 
ATOM     21 C21  MOL A   1       2.237 -13.930 -10.165  1.00  0.00    -0.054 A 
ATOM     22 C22  MOL A   1       1.667 -13.196 -11.205  1.00  0.00    -0.058 A 
ATOM     23 C23  MOL A   1       2.409 -12.909 -12.350  1.00  0.00    -0.016 A 
ATOM     24 C24  MOL A   1       3.745 -13.338 -12.457  1.00  0.00     0.161 A 
BRANCH  20  25
ATOM     25 C14  MOL A   1       4.130 -15.226  -9.135  1.00  0.00     0.028 C 
BRANCH  25  26
ATOM     26 N15  MOL A   1       3.581 -14.788  -7.836  1.00  0.00    -0.287 NA
ATOM     27 C16  MOL A   1       4.590 -14.872  -6.766  1.00  0.00     0.064 C 
ATOM     28 C17  MOL A   1       3.833 -15.965  -6.037  1.00  0.00     0.272 C 
ATOM     29 F18  MOL A   1       3.332 -15.570  -4.809  1.00  0.00    -0.204 F 
ATOM     30 F19  MOL A   1       4.497 -17.180  -6.008  1.00  0.00    -0.204 F 
ATOM     31 C20  MOL A   1       2.823 -15.858  -7.164  1.00  0.00     0.064 C 
ENDBRANCH  25  26
ENDBRANCH  20  25
BRANCH  24  32
ATOM     32 O25  MOL A   1       4.525 -13.071 -13.592  1.00  0.00    -0.493 OA
ATOM     33 C26  MOL A   1       4.627 -11.796 -14.218  1.00  0.00     0.078 C 
ENDBRANCH  24  32
ENDBRANCH  18  19
ENDBRANCH  17  18
ENDBRANCH  15  17
ENDBRANCH   8  14
ENDBRANCH   1   8
TORSDOF 10
ENDMDL
MODEL 314
REMARK VINA RESULT:    -7.139      5.069     10.442
REMARK INTER + INTRA:         -12.361
REMARK INTER:                 -10.948
REMARK INTRA:                  -1.413
REMARK UNBOUND:                -1.048
REMARK  10 active torsions:
REMARK  status: ('A' for Active; 'I' for Inactive)
REMARK   1   A    between atoms:  C27_1   and   C6_8  
REMARK   2   A    between atoms:  C6_8    and   C5_9  
REMARK   3   A    between atoms:  C5_9    and   C3_12 
REMARK   4   A    between atoms:  C6_8    and   N7_14 
REMARK   5   A    between atoms:  C8_15   and  C10_17 
REMARK   6   A    between atoms: C10_17   and  O11_18 
REMARK   7   A    between atoms: O11_18   and  C12_19 
REMARK   8   A    between atoms: C13_20   and  C14_25 
REMARK   9   A    between atoms: C14_25   and  N15_26 
REMARK   10  A    between atoms: C24_24   and  O25_32 
ROOT
ATOM      1 C27  MOL A   1       8.887 -20.477  -9.039  1.00  0.00    -0.024 A 
ATOM      2 C28  MOL A   1       9.073 -21.452 -10.037  1.00  0.00    -0.057 A 
ATOM      3 C29  MOL A   1       8.087 -22.415 -10.278  1.00  0.00    -0.061 A 
ATOM      4 C30  MOL A   1       6.909 -22.415  -9.527  1.00  0.00    -0.048 A 
ATOM      5 C31  MOL A   1       6.710 -21.449  -8.533  1.00  0.00     0.018 A 
ATOM      6 Br32 MOL A   1       5.087 -21.437  -7.520  1.00  0.00    -0.051 Br
ATOM      7 C33  MOL A   1       7.696 -20.489  -8.286  1.00  0.00    -0.043 A 
ENDROOT
BRANCH   1   8
ATOM      8  C6  MOL A   1       9.989 -19.485  -8.736  1.00  0.00     0.063 C 
BRANCH   8   9
ATOM      9  C5  MOL A   1       9.993 -18.363  -9.790  1.00  0.00     0.051 C 
BRANCH   9  12
ATOM     10  C1  MOL A   1       6.793 -16.226 -10.395  1.00  0.00     0.006 C 
ATOM     11  N2  MOL A   1       7.898 -17.154 -10.587  1.00  0.00    -0.359 N 
ATOM     12  C3  MOL A   1       8.871 -17.391  -9.564  1.00  0.00     0.222 C 
ATOM     13  O4  MOL A   1       8.789 -16.786  -8.461  1.00  0.00    -0.275 OA
ENDBRANCH   9  12
ENDBRANCH   8   9
BRANCH   8  14
ATOM     14  N7  MOL A   1      11.289 -20.164  -8.700  1.00  0.00    -0.346 N 
ATOM     15  C8  MOL A   1      11.868 -20.651  -7.488  1.00  0.00     0.258 C 
ATOM     16  O9  MOL A   1      11.268 -20.499  -6.390  1.00  0.00    -0.271 OA
BRANCH  15  17
ATOM     17 C10  MOL A   1      13.188 -21.362  -7.510  1.00  0.00     0.167 C 
BRANCH  17  18
ATOM     18 O11  MOL A   1      14.175 -20.559  -8.153  1.00  0.00    -0.480 OA
BRANCH  18  19
ATOM     19 C12  MOL A   1      15.389 -20.241  -7.537  1.00  0.00     0.166 A 
ATOM     20 C13  MOL A   1      15.504 -19.118  -6.686  1.00  0.00     0.012 A 
ATOM     21 C21  MOL A   1      16.722 -18.882  -6.025  1.00  0.00    -0.054 A 
ATOM     22 C22  MOL A   1      17.819 -19.715  -6.243  1.00  0.00    -0.058 A 
ATOM     23 C23  MOL A   1      17.717 -20.793  -7.122  1.00  0.00    -0.016 A 
ATOM     24 C24  MOL A   1      16.502 -21.062  -7.780  1.00  0.00     0.161 A 
BRANCH  20  25
ATOM     25 C14  MOL A   1      14.353 -18.162  -6.468  1.00  0.00     0.028 C 
BRANCH  25  26
ATOM     26 N15  MOL A   1      14.827 -16.764  -6.516  1.00  0.00    -0.287 NA
ATOM     27 C16  MOL A   1      14.365 -15.995  -5.347  1.00  0.00     0.064 C 
ATOM     28 C17  MOL A   1      13.488 -15.095  -6.195  1.00  0.00     0.272 C 
ATOM     29 F18  MOL A   1      13.913 -13.778  -6.229  1.00  0.00    -0.204 F 
ATOM     30 F19  MOL A   1      12.133 -15.241  -5.946  1.00  0.00    -0.204 F 
ATOM     31 C20  MOL A   1      13.977 -15.918  -7.371  1.00  0.00     0.064 C 
ENDBRANCH  25  26
ENDBRANCH  20  25
BRANCH  24  32
ATOM     32 O25  MOL A   1      16.359 -22.135  -8.672  1.00  0.00    -0.493 OA
ATOM     33 C26  MOL A   1      17.442 -22.888  -9.207  1.00  0.00     0.078 C 
ENDBRANCH  24  32
ENDBRANCH  18  19
ENDBRANCH  17  18
ENDBRANCH  15  17
ENDBRANCH   8  14
ENDBRANCH   1   8
TORSDOF 10
ENDMDL
MODEL 315
REMARK VINA RESULT:    -7.139      4.710      9.879
REMARK INTER + INTRA:         -12.360
REMARK INTER:                 -10.939
REMARK INTRA:                  -1.421
REMARK UNBOUND:                -1.048
REMARK  10 active torsions:
REMARK  status: ('A' for Active; 'I' for Inactive)
REMARK   1   A    between atoms:  C27_1   and   C6_8  
REMARK   2   A    between atoms:  C6_8    and   C5_9  
REMARK   3   A    between atoms:  C5_9    and   C3_12 
REMARK   4   A    between atoms:  C6_8    and   N7_14 
REMARK   5   A    between atoms:  C8_15   and  C10_17 
REMARK   6   A    between atoms: C10_17   and  O11_18 
REMARK   7   A    between atoms: O11_18   and  C12_19 
REMARK   8   A    between atoms: C13_20   and  C14_25 
REMARK   9   A    between atoms: C14_25   and  N15_26 
REMARK   10  A    between atoms: C24_24   and  O25_32 
ROOT
ATOM      1 C27  MOL A   1       8.410 -20.449  -9.519  1.00  0.00    -0.024 A 
ATOM      2 C28  MOL A   1       9.198 -21.585  -9.780  1.00  0.00    -0.057 A 
ATOM      3 C29  MOL A   1       8.594 -22.812 -10.077  1.00  0.00    -0.061 A 
ATOM      4 C30  MOL A   1       7.201 -22.917 -10.116  1.00  0.00    -0.048 A 
ATOM      5 C31  MOL A   1       6.406 -21.794  -9.861  1.00  0.00     0.018 A 
ATOM      6 Br32 MOL A   1       4.499 -21.934  -9.935  1.00  0.00    -0.051 Br
ATOM      7 C33  MOL A   1       7.005 -20.567  -9.558  1.00  0.00    -0.043 A 
ENDROOT
BRANCH   1   8
ATOM      8  C6  MOL A   1       9.069 -19.144  -9.127  1.00  0.00     0.063 C 
BRANCH   8   9
ATOM      9  C5  MOL A   1       9.085 -18.181 -10.328  1.00  0.00     0.051 C 
BRANCH   9  12
ATOM     10  C1  MOL A   1       6.173 -15.696 -11.049  1.00  0.00     0.006 C 
ATOM     11  N2  MOL A   1       7.154 -16.763 -11.191  1.00  0.00    -0.359 N 
ATOM     12  C3  MOL A   1       8.093 -17.068 -10.155  1.00  0.00     0.222 C 
ATOM     13  O4  MOL A   1       8.090 -16.402  -9.083  1.00  0.00    -0.275 OA
ENDBRANCH   9  12
ENDBRANCH   8   9
BRANCH   8  14
ATOM     14  N7  MOL A   1      10.431 -19.388  -8.642  1.00  0.00    -0.346 N 
ATOM     15  C8  MOL A   1      11.073 -18.536  -7.691  1.00  0.00     0.258 C 
ATOM     16  O9  MOL A   1      10.476 -17.523  -7.241  1.00  0.00    -0.271 OA
BRANCH  15  17
ATOM     17 C10  MOL A   1      12.459 -18.846  -7.209  1.00  0.00     0.167 C 
BRANCH  17  18
ATOM     18 O11  MOL A   1      13.350 -18.990  -8.312  1.00  0.00    -0.480 OA
BRANCH  18  19
ATOM     19 C12  MOL A   1      14.738 -19.010  -8.146  1.00  0.00     0.166 A 
ATOM     20 C13  MOL A   1      15.482 -17.810  -8.067  1.00  0.00     0.012 A 
ATOM     21 C21  MOL A   1      16.863 -17.875  -7.821  1.00  0.00    -0.054 A 
ATOM     22 C22  MOL A   1      17.504 -19.109  -7.703  1.00  0.00    -0.058 A 
ATOM     23 C23  MOL A   1      16.776 -20.292  -7.830  1.00  0.00    -0.016 A 
ATOM     24 C24  MOL A   1      15.388 -20.252  -8.058  1.00  0.00     0.161 A 
BRANCH  20  25
ATOM     25 C14  MOL A   1      14.831 -16.456  -8.244  1.00  0.00     0.028 C 
BRANCH  25  26
ATOM     26 N15  MOL A   1      15.090 -15.602  -7.067  1.00  0.00    -0.287 NA
ATOM     27 C16  MOL A   1      14.383 -16.095  -5.873  1.00  0.00     0.064 C 
ATOM     28 C17  MOL A   1      13.486 -14.875  -5.810  1.00  0.00     0.272 C 
ATOM     29 F18  MOL A   1      13.708 -14.079  -4.699  1.00  0.00    -0.204 F 
ATOM     30 F19  MOL A   1      12.149 -15.153  -6.043  1.00  0.00    -0.204 F 
ATOM     31 C20  MOL A   1      14.229 -14.407  -7.046  1.00  0.00     0.064 C 
ENDBRANCH  25  26
ENDBRANCH  20  25
BRANCH  24  32
ATOM     32 O25  MOL A   1      14.620 -21.418  -8.193  1.00  0.00    -0.493 OA
ATOM     33 C26  MOL A   1      15.107 -22.645  -8.725  1.00  0.00     0.078 C 
ENDBRANCH  24  32
ENDBRANCH  18  19
ENDBRANCH  17  18
ENDBRANCH  15  17
ENDBRANCH   8  14
ENDBRANCH   1   8
TORSDOF 10
ENDMDL
MODEL 316
REMARK VINA RESULT:    -7.139      7.026     11.476
REMARK INTER + INTRA:         -12.360
REMARK INTER:                 -10.968
REMARK INTRA:                  -1.392
REMARK UNBOUND:                -1.048
REMARK  10 active torsions:
REMARK  status: ('A' for Active; 'I' for Inactive)
REMARK   1   A    between atoms:  C27_1   and   C6_8  
REMARK   2   A    between atoms:  C6_8    and   C5_9  
REMARK   3   A    between atoms:  C5_9    and   C3_12 
REMARK   4   A    between atoms:  C6_8    and   N7_14 
REMARK   5   A    between atoms:  C8_15   and  C10_17 
REMARK   6   A    between atoms: C10_17   and  O11_18 
REMARK   7   A    between atoms: O11_18   and  C12_19 
REMARK   8   A    between atoms: C13_20   and  C14_25 
REMARK   9   A    between atoms: C14_25   and  N15_26 
REMARK   10  A    between atoms: C24_24   and  O25_32 
ROOT
ATOM      1 C27  MOL A   1       9.866 -18.726  -8.232  1.00  0.00    -0.024 A 
ATOM      2 C28  MOL A   1       9.760 -17.358  -8.544  1.00  0.00    -0.057 A 
ATOM      3 C29  MOL A   1       8.523 -16.806  -8.892  1.00  0.00    -0.061 A 
ATOM      4 C30  MOL A   1       7.381 -17.611  -8.932  1.00  0.00    -0.048 A 
ATOM      5 C31  MOL A   1       7.472 -18.972  -8.620  1.00  0.00     0.018 A 
ATOM      6 Br32 MOL A   1       5.906 -20.070  -8.654  1.00  0.00    -0.051 Br
ATOM      7 C33  MOL A   1       8.709 -19.529  -8.277  1.00  0.00    -0.043 A 
ENDROOT
BRANCH   1   8
ATOM      8  C6  MOL A   1      11.220 -19.330  -7.927  1.00  0.00     0.063 C 
BRANCH   8   9
ATOM      9  C5  MOL A   1      11.057 -20.549  -7.002  1.00  0.00     0.051 C 
BRANCH   9  12
ATOM     10  C1  MOL A   1      14.108 -22.840  -7.787  1.00  0.00     0.006 C 
ATOM     11  N2  MOL A   1      12.854 -22.111  -7.907  1.00  0.00    -0.359 N 
ATOM     12  C3  MOL A   1      12.349 -21.297  -6.843  1.00  0.00     0.222 C 
ATOM     13  O4  MOL A   1      12.992 -21.199  -5.762  1.00  0.00    -0.275 OA
ENDBRANCH   9  12
ENDBRANCH   8   9
BRANCH   8  14
ATOM     14  N7  MOL A   1      12.097 -18.328  -7.312  1.00  0.00    -0.346 N 
ATOM     15  C8  MOL A   1      13.413 -18.056  -7.798  1.00  0.00     0.258 C 
ATOM     16  O9  MOL A   1      13.870 -18.691  -8.785  1.00  0.00    -0.271 OA
BRANCH  15  17
ATOM     17 C10  MOL A   1      14.258 -17.002  -7.147  1.00  0.00     0.167 C 
BRANCH  17  18
ATOM     18 O11  MOL A   1      14.871 -17.513  -5.966  1.00  0.00    -0.480 OA
BRANCH  18  19
ATOM     19 C12  MOL A   1      16.229 -17.325  -5.694  1.00  0.00     0.166 A 
ATOM     20 C13  MOL A   1      16.668 -16.276  -4.854  1.00  0.00     0.012 A 
ATOM     21 C21  MOL A   1      18.034 -16.172  -4.545  1.00  0.00    -0.054 A 
ATOM     22 C22  MOL A   1      18.955 -17.062  -5.096  1.00  0.00    -0.058 A 
ATOM     23 C23  MOL A   1      18.526 -18.067  -5.964  1.00  0.00    -0.016 A 
ATOM     24 C24  MOL A   1      17.159 -18.203  -6.273  1.00  0.00     0.161 A 
BRANCH  20  25
ATOM     25 C14  MOL A   1      15.706 -15.259  -4.281  1.00  0.00     0.028 C 
BRANCH  25  26
ATOM     26 N15  MOL A   1      15.008 -15.816  -3.104  1.00  0.00    -0.287 NA
ATOM     27 C16  MOL A   1      13.909 -14.940  -2.661  1.00  0.00     0.064 C 
ATOM     28 C17  MOL A   1      14.597 -14.617  -1.350  1.00  0.00     0.272 C 
ATOM     29 F18  MOL A   1      13.940 -15.117  -0.239  1.00  0.00    -0.204 F 
ATOM     30 F19  MOL A   1      14.972 -13.289  -1.229  1.00  0.00    -0.204 F 
ATOM     31 C20  MOL A   1      15.714 -15.515  -1.846  1.00  0.00     0.064 C 
ENDBRANCH  25  26
ENDBRANCH  20  25
BRANCH  24  32
ATOM     32 O25  MOL A   1      16.687 -19.197  -7.142  1.00  0.00    -0.493 OA
ATOM     33 C26  MOL A   1      16.938 -20.590  -6.984  1.00  0.00     0.078 C 
ENDBRANCH  24  32
ENDBRANCH  18  19
ENDBRANCH  17  18
ENDBRANCH  15  17
ENDBRANCH   8  14
ENDBRANCH   1   8
TORSDOF 10
ENDMDL
MODEL 317
REMARK VINA RESULT:    -7.137      7.395     11.761
REMARK INTER + INTRA:         -12.358
REMARK INTER:                 -11.015
REMARK INTRA:                  -1.344
REMARK UNBOUND:                -1.048
REMARK  10 active torsions:
REMARK  status: ('A' for Active; 'I' for Inactive)
REMARK   1   A    between atoms:  C27_1   and   C6_8  
REMARK   2   A    between atoms:  C6_8    and   C5_9  
REMARK   3   A    between atoms:  C5_9    and   C3_12 
REMARK   4   A    between atoms:  C6_8    and   N7_14 
REMARK   5   A    between atoms:  C8_15   and  C10_17 
REMARK   6   A    between atoms: C10_17   and  O11_18 
REMARK   7   A    between atoms: O11_18   and  C12_19 
REMARK   8   A    between atoms: C13_20   and  C14_25 
REMARK   9   A    between atoms: C14_25   and  N15_26 
REMARK   10  A    between atoms: C24_24   and  O25_32 
ROOT
ATOM      1 C27  MOL A   1       9.902 -18.579  -8.087  1.00  0.00    -0.024 A 
ATOM      2 C28  MOL A   1       9.744 -17.198  -8.302  1.00  0.00    -0.057 A 
ATOM      3 C29  MOL A   1       8.492 -16.674  -8.640  1.00  0.00    -0.061 A 
ATOM      4 C30  MOL A   1       7.387 -17.520  -8.767  1.00  0.00    -0.048 A 
ATOM      5 C31  MOL A   1       7.530 -18.896  -8.552  1.00  0.00     0.018 A 
ATOM      6 Br32 MOL A   1       6.013 -20.052  -8.704  1.00  0.00    -0.051 Br
ATOM      7 C33  MOL A   1       8.782 -19.425  -8.219  1.00  0.00    -0.043 A 
ENDROOT
BRANCH   1   8
ATOM      8  C6  MOL A   1      11.274 -19.148  -7.794  1.00  0.00     0.063 C 
BRANCH   8   9
ATOM      9  C5  MOL A   1      11.148 -20.390  -6.893  1.00  0.00     0.051 C 
BRANCH   9  12
ATOM     10  C1  MOL A   1      14.597 -22.084  -6.252  1.00  0.00     0.006 C 
ATOM     11  N2  MOL A   1      13.439 -21.208  -6.139  1.00  0.00    -0.359 N 
ATOM     12  C3  MOL A   1      12.332 -21.301  -7.042  1.00  0.00     0.222 C 
ATOM     13  O4  MOL A   1      12.343 -22.154  -7.971  1.00  0.00    -0.275 OA
ENDBRANCH   9  12
ENDBRANCH   8   9
BRANCH   8  14
ATOM     14  N7  MOL A   1      12.120 -18.132  -7.158  1.00  0.00    -0.346 N 
ATOM     15  C8  MOL A   1      13.392 -17.751  -7.685  1.00  0.00     0.258 C 
ATOM     16  O9  MOL A   1      13.836 -18.298  -8.730  1.00  0.00    -0.271 OA
BRANCH  15  17
ATOM     17 C10  MOL A   1      14.205 -16.688  -7.010  1.00  0.00     0.167 C 
BRANCH  17  18
ATOM     18 O11  MOL A   1      14.333 -16.966  -5.618  1.00  0.00    -0.480 OA
BRANCH  18  19
ATOM     19 C12  MOL A   1      15.501 -16.678  -4.908  1.00  0.00     0.166 A 
ATOM     20 C13  MOL A   1      16.574 -17.598  -4.861  1.00  0.00     0.012 A 
ATOM     21 C21  MOL A   1      17.760 -17.234  -4.202  1.00  0.00    -0.054 A 
ATOM     22 C22  MOL A   1      17.864 -16.000  -3.560  1.00  0.00    -0.058 A 
ATOM     23 C23  MOL A   1      16.786 -15.114  -3.565  1.00  0.00    -0.016 A 
ATOM     24 C24  MOL A   1      15.595 -15.448  -4.236  1.00  0.00     0.161 A 
BRANCH  20  25
ATOM     25 C14  MOL A   1      16.479 -18.966  -5.499  1.00  0.00     0.028 C 
BRANCH  25  26
ATOM     26 N15  MOL A   1      16.776 -18.883  -6.944  1.00  0.00    -0.287 NA
ATOM     27 C16  MOL A   1      17.601 -20.017  -7.393  1.00  0.00     0.064 C 
ATOM     28 C17  MOL A   1      18.785 -19.125  -7.710  1.00  0.00     0.272 C 
ATOM     29 F18  MOL A   1      19.085 -19.057  -9.059  1.00  0.00    -0.204 F 
ATOM     30 F19  MOL A   1      19.887 -19.353  -6.901  1.00  0.00    -0.204 F 
ATOM     31 C20  MOL A   1      17.910 -17.985  -7.227  1.00  0.00     0.064 C 
ENDBRANCH  25  26
ENDBRANCH  20  25
BRANCH  24  32
ATOM     32 O25  MOL A   1      14.489 -14.587  -4.264  1.00  0.00    -0.493 OA
ATOM     33 C26  MOL A   1      14.210 -13.601  -3.275  1.00  0.00     0.078 C 
ENDBRANCH  24  32
ENDBRANCH  18  19
ENDBRANCH  17  18
ENDBRANCH  15  17
ENDBRANCH   8  14
ENDBRANCH   1   8
TORSDOF 10
ENDMDL
MODEL 318
REMARK VINA RESULT:    -7.137      7.729     11.238
REMARK INTER + INTRA:         -12.358
REMARK INTER:                 -11.022
REMARK INTRA:                  -1.336
REMARK UNBOUND:                -1.048
REMARK  10 active torsions:
REMARK  status: ('A' for Active; 'I' for Inactive)
REMARK   1   A    between atoms:  C27_1   and   C6_8  
REMARK   2   A    between atoms:  C6_8    and   C5_9  
REMARK   3   A    between atoms:  C5_9    and   C3_12 
REMARK   4   A    between atoms:  C6_8    and   N7_14 
REMARK   5   A    between atoms:  C8_15   and  C10_17 
REMARK   6   A    between atoms: C10_17   and  O11_18 
REMARK   7   A    between atoms: O11_18   and  C12_19 
REMARK   8   A    between atoms: C13_20   and  C14_25 
REMARK   9   A    between atoms: C14_25   and  N15_26 
REMARK   10  A    between atoms: C24_24   and  O25_32 
ROOT
ATOM      1 C27  MOL A   1      18.192 -17.694 -11.566  1.00  0.00    -0.024 A 
ATOM      2 C28  MOL A   1      18.730 -16.394 -11.584  1.00  0.00    -0.057 A 
ATOM      3 C29  MOL A   1      18.710 -15.636 -12.760  1.00  0.00    -0.061 A 
ATOM      4 C30  MOL A   1      18.156 -16.167 -13.928  1.00  0.00    -0.048 A 
ATOM      5 C31  MOL A   1      17.614 -17.458 -13.923  1.00  0.00     0.018 A 
ATOM      6 Br32 MOL A   1      16.835 -18.176 -15.516  1.00  0.00    -0.051 Br
ATOM      7 C33  MOL A   1      17.637 -18.220 -12.750  1.00  0.00    -0.043 A 
ENDROOT
BRANCH   1   8
ATOM      8  C6  MOL A   1      18.282 -18.534 -10.311  1.00  0.00     0.063 C 
BRANCH   8   9
ATOM      9  C5  MOL A   1      19.043 -19.840 -10.603  1.00  0.00     0.051 C 
BRANCH   9  12
ATOM     10  C1  MOL A   1      20.117 -22.519  -7.988  1.00  0.00     0.006 C 
ATOM     11  N2  MOL A   1      19.600 -21.886  -9.193  1.00  0.00    -0.359 N 
ATOM     12  C3  MOL A   1      19.572 -20.463  -9.344  1.00  0.00     0.222 C 
ATOM     13  O4  MOL A   1      19.996 -19.720  -8.417  1.00  0.00    -0.275 OA
ENDBRANCH   9  12
ENDBRANCH   8   9
BRANCH   8  14
ATOM     14  N7  MOL A   1      16.940 -18.822  -9.794  1.00  0.00    -0.346 N 
ATOM     15  C8  MOL A   1      16.498 -18.379  -8.509  1.00  0.00     0.258 C 
ATOM     16  O9  MOL A   1      17.272 -17.722  -7.764  1.00  0.00    -0.271 OA
BRANCH  15  17
ATOM     17 C10  MOL A   1      15.106 -18.679  -8.041  1.00  0.00     0.167 C 
BRANCH  17  18
ATOM     18 O11  MOL A   1      14.169 -17.809  -8.671  1.00  0.00    -0.480 OA
BRANCH  18  19
ATOM     19 C12  MOL A   1      13.124 -17.208  -7.965  1.00  0.00     0.166 A 
ATOM     20 C13  MOL A   1      11.798 -17.684  -8.075  1.00  0.00     0.012 A 
ATOM     21 C21  MOL A   1      10.792 -17.101  -7.287  1.00  0.00    -0.054 A 
ATOM     22 C22  MOL A   1      11.086 -16.033  -6.440  1.00  0.00    -0.058 A 
ATOM     23 C23  MOL A   1      12.386 -15.532  -6.370  1.00  0.00    -0.016 A 
ATOM     24 C24  MOL A   1      13.414 -16.112  -7.135  1.00  0.00     0.161 A 
BRANCH  20  25
ATOM     25 C14  MOL A   1      11.430 -18.805  -9.022  1.00  0.00     0.028 C 
BRANCH  25  26
ATOM     26 N15  MOL A   1      10.037 -18.651  -9.489  1.00  0.00    -0.287 NA
ATOM     27 C16  MOL A   1       9.228 -19.843  -9.181  1.00  0.00     0.064 C 
ATOM     28 C17  MOL A   1       9.046 -20.187 -10.646  1.00  0.00     0.272 C 
ATOM     29 F18  MOL A   1       7.740 -20.066 -11.087  1.00  0.00    -0.204 F 
ATOM     30 F19  MOL A   1       9.657 -21.373 -11.020  1.00  0.00    -0.204 F 
ATOM     31 C20  MOL A   1       9.893 -18.961 -10.922  1.00  0.00     0.064 C 
ENDBRANCH  25  26
ENDBRANCH  20  25
BRANCH  24  32
ATOM     32 O25  MOL A   1      14.733 -15.638  -7.094  1.00  0.00    -0.493 OA
ATOM     33 C26  MOL A   1      15.189 -14.466  -7.763  1.00  0.00     0.078 C 
ENDBRANCH  24  32
ENDBRANCH  18  19
ENDBRANCH  17  18
ENDBRANCH  15  17
ENDBRANCH   8  14
ENDBRANCH   1   8
TORSDOF 10
ENDMDL
MODEL 319
REMARK VINA RESULT:    -7.136      5.972      9.046
REMARK INTER + INTRA:         -12.356
REMARK INTER:                 -11.321
REMARK INTRA:                  -1.035
REMARK UNBOUND:                -1.048
REMARK  10 active torsions:
REMARK  status: ('A' for Active; 'I' for Inactive)
REMARK   1   A    between atoms:  C27_1   and   C6_8  
REMARK   2   A    between atoms:  C6_8    and   C5_9  
REMARK   3   A    between atoms:  C5_9    and   C3_12 
REMARK   4   A    between atoms:  C6_8    and   N7_14 
REMARK   5   A    between atoms:  C8_15   and  C10_17 
REMARK   6   A    between atoms: C10_17   and  O11_18 
REMARK   7   A    between atoms: O11_18   and  C12_19 
REMARK   8   A    between atoms: C13_20   and  C14_25 
REMARK   9   A    between atoms: C14_25   and  N15_26 
REMARK   10  A    between atoms: C24_24   and  O25_32 
ROOT
ATOM      1 C27  MOL A   1      14.604 -18.398  -6.526  1.00  0.00    -0.024 A 
ATOM      2 C28  MOL A   1      15.555 -18.394  -5.489  1.00  0.00    -0.057 A 
ATOM      3 C29  MOL A   1      16.239 -17.218  -5.162  1.00  0.00    -0.061 A 
ATOM      4 C30  MOL A   1      15.982 -16.038  -5.865  1.00  0.00    -0.048 A 
ATOM      5 C31  MOL A   1      15.036 -16.028  -6.896  1.00  0.00     0.018 A 
ATOM      6 Br32 MOL A   1      14.668 -14.407  -7.844  1.00  0.00    -0.051 Br
ATOM      7 C33  MOL A   1      14.353 -17.203  -7.230  1.00  0.00    -0.043 A 
ENDROOT
BRANCH   1   8
ATOM      8  C6  MOL A   1      13.921 -19.690  -6.922  1.00  0.00     0.063 C 
BRANCH   8   9
ATOM      9  C5  MOL A   1      14.387 -20.124  -8.323  1.00  0.00     0.051 C 
BRANCH   9  12
ATOM     10  C1  MOL A   1      17.251 -22.550  -7.279  1.00  0.00     0.006 C 
ATOM     11  N2  MOL A   1      15.967 -21.866  -7.345  1.00  0.00    -0.359 N 
ATOM     12  C3  MOL A   1      15.725 -20.803  -8.273  1.00  0.00     0.222 C 
ATOM     13  O4  MOL A   1      16.638 -20.430  -9.059  1.00  0.00    -0.275 OA
ENDBRANCH   9  12
ENDBRANCH   8   9
BRANCH   8  14
ATOM     14  N7  MOL A   1      12.464 -19.525  -6.890  1.00  0.00    -0.346 N 
ATOM     15  C8  MOL A   1      11.562 -20.617  -7.080  1.00  0.00     0.258 C 
ATOM     16  O9  MOL A   1      12.005 -21.777  -7.295  1.00  0.00    -0.271 OA
BRANCH  15  17
ATOM     17 C10  MOL A   1      10.081 -20.398  -7.011  1.00  0.00     0.167 C 
BRANCH  17  18
ATOM     18 O11  MOL A   1       9.555 -20.134  -8.310  1.00  0.00    -0.480 OA
BRANCH  18  19
ATOM     19 C12  MOL A   1       8.760 -19.015  -8.575  1.00  0.00     0.166 A 
ATOM     20 C13  MOL A   1       7.349 -19.098  -8.552  1.00  0.00     0.012 A 
ATOM     21 C21  MOL A   1       6.591 -17.932  -8.746  1.00  0.00    -0.054 A 
ATOM     22 C22  MOL A   1       7.219 -16.714  -9.005  1.00  0.00    -0.058 A 
ATOM     23 C23  MOL A   1       8.610 -16.644  -9.077  1.00  0.00    -0.016 A 
ATOM     24 C24  MOL A   1       9.392 -17.795  -8.867  1.00  0.00     0.161 A 
BRANCH  20  25
ATOM     25 C14  MOL A   1       6.632 -20.411  -8.327  1.00  0.00     0.028 C 
BRANCH  25  26
ATOM     26 N15  MOL A   1       5.179 -20.247  -8.534  1.00  0.00    -0.287 NA
ATOM     27 C16  MOL A   1       4.456 -20.151  -7.254  1.00  0.00     0.064 C 
ATOM     28 C17  MOL A   1       3.733 -21.464  -7.480  1.00  0.00     0.272 C 
ATOM     29 F18  MOL A   1       2.367 -21.322  -7.655  1.00  0.00    -0.204 F 
ATOM     30 F19  MOL A   1       4.083 -22.456  -6.579  1.00  0.00    -0.204 F 
ATOM     31 C20  MOL A   1       4.505 -21.533  -8.783  1.00  0.00     0.064 C 
ENDBRANCH  25  26
ENDBRANCH  20  25
BRANCH  24  32
ATOM     32 O25  MOL A   1      10.792 -17.767  -8.931  1.00  0.00    -0.493 OA
ATOM     33 C26  MOL A   1      11.554 -18.145 -10.073  1.00  0.00     0.078 C 
ENDBRANCH  24  32
ENDBRANCH  18  19
ENDBRANCH  17  18
ENDBRANCH  15  17
ENDBRANCH   8  14
ENDBRANCH   1   8
TORSDOF 10
ENDMDL
MODEL 320
REMARK VINA RESULT:    -7.136      5.925     10.092
REMARK INTER + INTRA:         -12.356
REMARK INTER:                 -10.826
REMARK INTRA:                  -1.530
REMARK UNBOUND:                -1.048
REMARK  10 active torsions:
REMARK  status: ('A' for Active; 'I' for Inactive)
REMARK   1   A    between atoms:  C27_1   and   C6_8  
REMARK   2   A    between atoms:  C6_8    and   C5_9  
REMARK   3   A    between atoms:  C5_9    and   C3_12 
REMARK   4   A    between atoms:  C6_8    and   N7_14 
REMARK   5   A    between atoms:  C8_15   and  C10_17 
REMARK   6   A    between atoms: C10_17   and  O11_18 
REMARK   7   A    between atoms: O11_18   and  C12_19 
REMARK   8   A    between atoms: C13_20   and  C14_25 
REMARK   9   A    between atoms: C14_25   and  N15_26 
REMARK   10  A    between atoms: C24_24   and  O25_32 
ROOT
ATOM      1 C27  MOL A   1      17.567 -17.675  -8.603  1.00  0.00    -0.024 A 
ATOM      2 C28  MOL A   1      18.339 -18.831  -8.384  1.00  0.00    -0.057 A 
ATOM      3 C29  MOL A   1      19.275 -19.247  -9.337  1.00  0.00    -0.061 A 
ATOM      4 C30  MOL A   1      19.449 -18.517 -10.516  1.00  0.00    -0.048 A 
ATOM      5 C31  MOL A   1      18.690 -17.364 -10.744  1.00  0.00     0.018 A 
ATOM      6 Br32 MOL A   1      18.944 -16.352 -12.348  1.00  0.00    -0.051 Br
ATOM      7 C33  MOL A   1      17.749 -16.947  -9.797  1.00  0.00    -0.043 A 
ENDROOT
BRANCH   1   8
ATOM      8  C6  MOL A   1      16.506 -17.272  -7.602  1.00  0.00     0.063 C 
BRANCH   8   9
ATOM      9  C5  MOL A   1      16.824 -17.880  -6.224  1.00  0.00     0.051 C 
BRANCH   9  12
ATOM     10  C1  MOL A   1      15.449 -15.043  -3.936  1.00  0.00     0.006 C 
ATOM     11  N2  MOL A   1      16.168 -15.755  -4.983  1.00  0.00    -0.359 N 
ATOM     12  C3  MOL A   1      16.079 -17.176  -5.127  1.00  0.00     0.222 C 
ATOM     13  O4  MOL A   1      15.368 -17.849  -4.331  1.00  0.00    -0.275 OA
ENDBRANCH   9  12
ENDBRANCH   8   9
BRANCH   8  14
ATOM     14  N7  MOL A   1      15.182 -17.703  -8.063  1.00  0.00    -0.346 N 
ATOM     15  C8  MOL A   1      14.096 -16.792  -8.243  1.00  0.00     0.258 C 
ATOM     16  O9  MOL A   1      14.248 -15.566  -7.996  1.00  0.00    -0.271 OA
BRANCH  15  17
ATOM     17 C10  MOL A   1      12.770 -17.282  -8.742  1.00  0.00     0.167 C 
BRANCH  17  18
ATOM     18 O11  MOL A   1      12.113 -18.053  -7.739  1.00  0.00    -0.480 OA
BRANCH  18  19
ATOM     19 C12  MOL A   1      11.684 -19.362  -7.973  1.00  0.00     0.166 A 
ATOM     20 C13  MOL A   1      10.597 -19.632  -8.835  1.00  0.00     0.012 A 
ATOM     21 C21  MOL A   1      10.250 -20.967  -9.103  1.00  0.00    -0.054 A 
ATOM     22 C22  MOL A   1      10.937 -22.014  -8.490  1.00  0.00    -0.058 A 
ATOM     23 C23  MOL A   1      11.977 -21.744  -7.600  1.00  0.00    -0.016 A 
ATOM     24 C24  MOL A   1      12.356 -20.416  -7.331  1.00  0.00     0.161 A 
BRANCH  20  25
ATOM     25 C14  MOL A   1       9.794 -18.522  -9.477  1.00  0.00     0.028 C 
BRANCH  25  26
ATOM     26 N15  MOL A   1       8.635 -18.170  -8.632  1.00  0.00    -0.287 NA
ATOM     27 C16  MOL A   1       7.372 -18.247  -9.385  1.00  0.00     0.064 C 
ATOM     28 C17  MOL A   1       7.136 -16.753  -9.287  1.00  0.00     0.272 C 
ATOM     29 F18  MOL A   1       6.039 -16.414  -8.514  1.00  0.00    -0.204 F 
ATOM     30 F19  MOL A   1       7.187 -16.099 -10.507  1.00  0.00    -0.204 F 
ATOM     31 C20  MOL A   1       8.447 -16.712  -8.526  1.00  0.00     0.064 C 
ENDBRANCH  25  26
ENDBRANCH  20  25
BRANCH  24  32
ATOM     32 O25  MOL A   1      13.395 -20.102  -6.443  1.00  0.00    -0.493 OA
ATOM     33 C26  MOL A   1      13.781 -20.910  -5.337  1.00  0.00     0.078 C 
ENDBRANCH  24  32
ENDBRANCH  18  19
ENDBRANCH  17  18
ENDBRANCH  15  17
ENDBRANCH   8  14
ENDBRANCH   1   8
TORSDOF 10
ENDMDL
MODEL 321
REMARK VINA RESULT:    -7.132     10.334     12.633
REMARK INTER + INTRA:         -12.350
REMARK INTER:                 -10.983
REMARK INTRA:                  -1.367
REMARK UNBOUND:                -1.048
REMARK  10 active torsions:
REMARK  status: ('A' for Active; 'I' for Inactive)
REMARK   1   A    between atoms:  C27_1   and   C6_8  
REMARK   2   A    between atoms:  C6_8    and   C5_9  
REMARK   3   A    between atoms:  C5_9    and   C3_12 
REMARK   4   A    between atoms:  C6_8    and   N7_14 
REMARK   5   A    between atoms:  C8_15   and  C10_17 
REMARK   6   A    between atoms: C10_17   and  O11_18 
REMARK   7   A    between atoms: O11_18   and  C12_19 
REMARK   8   A    between atoms: C13_20   and  C14_25 
REMARK   9   A    between atoms: C14_25   and  N15_26 
REMARK   10  A    between atoms: C24_24   and  O25_32 
ROOT
ATOM      1 C27  MOL A   1      18.420 -18.297  -9.296  1.00  0.00    -0.024 A 
ATOM      2 C28  MOL A   1      19.539 -19.134  -9.459  1.00  0.00    -0.057 A 
ATOM      3 C29  MOL A   1      20.436 -18.919 -10.512  1.00  0.00    -0.061 A 
ATOM      4 C30  MOL A   1      20.225 -17.869 -11.409  1.00  0.00    -0.048 A 
ATOM      5 C31  MOL A   1      19.118 -17.026 -11.255  1.00  0.00     0.018 A 
ATOM      6 Br32 MOL A   1      18.843 -15.575 -12.471  1.00  0.00    -0.051 Br
ATOM      7 C33  MOL A   1      18.217 -17.241 -10.208  1.00  0.00    -0.043 A 
ENDROOT
BRANCH   1   8
ATOM      8  C6  MOL A   1      17.417 -18.580  -8.199  1.00  0.00     0.063 C 
BRANCH   8   9
ATOM      9  C5  MOL A   1      16.062 -18.977  -8.814  1.00  0.00     0.051 C 
BRANCH   9  12
ATOM     10  C1  MOL A   1      15.197 -21.455  -5.936  1.00  0.00     0.006 C 
ATOM     11  N2  MOL A   1      15.933 -20.598  -6.854  1.00  0.00    -0.359 N 
ATOM     12  C3  MOL A   1      15.275 -19.860  -7.889  1.00  0.00     0.222 C 
ATOM     13  O4  MOL A   1      14.025 -19.946  -8.030  1.00  0.00    -0.275 OA
ENDBRANCH   9  12
ENDBRANCH   8   9
BRANCH   8  14
ATOM     14  N7  MOL A   1      17.266 -17.407  -7.332  1.00  0.00    -0.346 N 
ATOM     15  C8  MOL A   1      17.727 -17.386  -5.979  1.00  0.00     0.258 C 
ATOM     16  O9  MOL A   1      18.279 -18.403  -5.480  1.00  0.00    -0.271 OA
BRANCH  15  17
ATOM     17 C10  MOL A   1      17.572 -16.151  -5.144  1.00  0.00     0.167 C 
BRANCH  17  18
ATOM     18 O11  MOL A   1      16.888 -16.452  -3.930  1.00  0.00    -0.480 OA
BRANCH  18  19
ATOM     19 C12  MOL A   1      15.843 -15.657  -3.451  1.00  0.00     0.166 A 
ATOM     20 C13  MOL A   1      14.583 -15.640  -4.092  1.00  0.00     0.012 A 
ATOM     21 C21  MOL A   1      13.538 -14.888  -3.530  1.00  0.00    -0.054 A 
ATOM     22 C22  MOL A   1      13.752 -14.127  -2.381  1.00  0.00    -0.058 A 
ATOM     23 C23  MOL A   1      15.010 -14.105  -1.779  1.00  0.00    -0.016 A 
ATOM     24 C24  MOL A   1      16.067 -14.866  -2.312  1.00  0.00     0.161 A 
BRANCH  20  25
ATOM     25 C14  MOL A   1      14.329 -16.411  -5.369  1.00  0.00     0.028 C 
BRANCH  25  26
ATOM     26 N15  MOL A   1      13.668 -15.548  -6.369  1.00  0.00    -0.287 NA
ATOM     27 C16  MOL A   1      14.123 -15.855  -7.735  1.00  0.00     0.064 C 
ATOM     28 C17  MOL A   1      14.792 -14.504  -7.895  1.00  0.00     0.272 C 
ATOM     29 F18  MOL A   1      14.191 -13.696  -8.845  1.00  0.00    -0.204 F 
ATOM     30 F19  MOL A   1      16.171 -14.574  -8.009  1.00  0.00    -0.204 F 
ATOM     31 C20  MOL A   1      14.317 -14.230  -6.482  1.00  0.00     0.064 C 
ENDBRANCH  25  26
ENDBRANCH  20  25
BRANCH  24  32
ATOM     32 O25  MOL A   1      17.346 -14.871  -1.737  1.00  0.00    -0.493 OA
ATOM     33 C26  MOL A   1      17.614 -15.164  -0.370  1.00  0.00     0.078 C 
ENDBRANCH  24  32
ENDBRANCH  18  19
ENDBRANCH  17  18
ENDBRANCH  15  17
ENDBRANCH   8  14
ENDBRANCH   1   8
TORSDOF 10
ENDMDL
MODEL 322
REMARK VINA RESULT:    -7.132      6.840     11.006
REMARK INTER + INTRA:         -12.349
REMARK INTER:                 -10.969
REMARK INTRA:                  -1.380
REMARK UNBOUND:                -1.048
REMARK  10 active torsions:
REMARK  status: ('A' for Active; 'I' for Inactive)
REMARK   1   A    between atoms:  C27_1   and   C6_8  
REMARK   2   A    between atoms:  C6_8    and   C5_9  
REMARK   3   A    between atoms:  C5_9    and   C3_12 
REMARK   4   A    between atoms:  C6_8    and   N7_14 
REMARK   5   A    between atoms:  C8_15   and  C10_17 
REMARK   6   A    between atoms: C10_17   and  O11_18 
REMARK   7   A    between atoms: O11_18   and  C12_19 
REMARK   8   A    between atoms: C13_20   and  C14_25 
REMARK   9   A    between atoms: C14_25   and  N15_26 
REMARK   10  A    between atoms: C24_24   and  O25_32 
ROOT
ATOM      1 C27  MOL A   1      17.547 -18.555  -5.359  1.00  0.00    -0.024 A 
ATOM      2 C28  MOL A   1      18.435 -17.465  -5.414  1.00  0.00    -0.057 A 
ATOM      3 C29  MOL A   1      18.423 -16.492  -4.408  1.00  0.00    -0.061 A 
ATOM      4 C30  MOL A   1      17.526 -16.597  -3.342  1.00  0.00    -0.048 A 
ATOM      5 C31  MOL A   1      16.640 -17.678  -3.274  1.00  0.00     0.018 A 
ATOM      6 Br32 MOL A   1      15.428 -17.832  -1.802  1.00  0.00    -0.051 Br
ATOM      7 C33  MOL A   1      16.646 -18.650  -4.280  1.00  0.00    -0.043 A 
ENDROOT
BRANCH   1   8
ATOM      8  C6  MOL A   1      17.517 -19.564  -6.487  1.00  0.00     0.063 C 
BRANCH   8   9
ATOM      9  C5  MOL A   1      18.900 -19.645  -7.159  1.00  0.00     0.051 C 
BRANCH   9  12
ATOM     10  C1  MOL A   1      18.773 -23.512  -7.609  1.00  0.00     0.006 C 
ATOM     11  N2  MOL A   1      18.377 -22.124  -7.423  1.00  0.00    -0.359 N 
ATOM     12  C3  MOL A   1      19.341 -21.068  -7.342  1.00  0.00     0.222 C 
ATOM     13  O4  MOL A   1      20.572 -21.329  -7.426  1.00  0.00    -0.275 OA
ENDBRANCH   9  12
ENDBRANCH   8   9
BRANCH   8  14
ATOM     14  N7  MOL A   1      16.487 -19.201  -7.466  1.00  0.00    -0.346 N 
ATOM     15  C8  MOL A   1      15.204 -19.829  -7.501  1.00  0.00     0.258 C 
ATOM     16  O9  MOL A   1      14.920 -20.739  -6.678  1.00  0.00    -0.271 OA
BRANCH  15  17
ATOM     17 C10  MOL A   1      14.178 -19.401  -8.507  1.00  0.00     0.167 C 
BRANCH  17  18
ATOM     18 O11  MOL A   1      14.189 -17.984  -8.660  1.00  0.00    -0.480 OA
BRANCH  18  19
ATOM     19 C12  MOL A   1      13.448 -17.142  -7.826  1.00  0.00     0.166 A 
ATOM     20 C13  MOL A   1      12.037 -17.223  -7.774  1.00  0.00     0.012 A 
ATOM     21 C21  MOL A   1      11.338 -16.413  -6.863  1.00  0.00    -0.054 A 
ATOM     22 C22  MOL A   1      12.021 -15.505  -6.054  1.00  0.00    -0.058 A 
ATOM     23 C23  MOL A   1      13.408 -15.391  -6.143  1.00  0.00    -0.016 A 
ATOM     24 C24  MOL A   1      14.132 -16.206  -7.033  1.00  0.00     0.161 A 
BRANCH  20  25
ATOM     25 C14  MOL A   1      11.259 -18.157  -8.673  1.00  0.00     0.028 C 
BRANCH  25  26
ATOM     26 N15  MOL A   1       9.824 -18.135  -8.322  1.00  0.00    -0.287 NA
ATOM     27 C16  MOL A   1       9.145 -19.374  -8.738  1.00  0.00     0.064 C 
ATOM     28 C17  MOL A   1       8.290 -18.650  -9.759  1.00  0.00     0.272 C 
ATOM     29 F18  MOL A   1       6.942 -18.641  -9.449  1.00  0.00    -0.204 F 
ATOM     30 F19  MOL A   1       8.563 -19.008 -11.069  1.00  0.00    -0.204 F 
ATOM     31 C20  MOL A   1       9.021 -17.398  -9.313  1.00  0.00     0.064 C 
ENDBRANCH  25  26
ENDBRANCH  20  25
BRANCH  24  32
ATOM     32 O25  MOL A   1      15.527 -16.123  -7.154  1.00  0.00    -0.493 OA
ATOM     33 C26  MOL A   1      16.220 -15.029  -7.745  1.00  0.00     0.078 C 
ENDBRANCH  24  32
ENDBRANCH  18  19
ENDBRANCH  17  18
ENDBRANCH  15  17
ENDBRANCH   8  14
ENDBRANCH   1   8
TORSDOF 10
ENDMDL
MODEL 323
REMARK VINA RESULT:    -7.130      7.543     11.363
REMARK INTER + INTRA:         -12.347
REMARK INTER:                 -10.660
REMARK INTRA:                  -1.687
REMARK UNBOUND:                -1.048
REMARK  10 active torsions:
REMARK  status: ('A' for Active; 'I' for Inactive)
REMARK   1   A    between atoms:  C27_1   and   C6_8  
REMARK   2   A    between atoms:  C6_8    and   C5_9  
REMARK   3   A    between atoms:  C5_9    and   C3_12 
REMARK   4   A    between atoms:  C6_8    and   N7_14 
REMARK   5   A    between atoms:  C8_15   and  C10_17 
REMARK   6   A    between atoms: C10_17   and  O11_18 
REMARK   7   A    between atoms: O11_18   and  C12_19 
REMARK   8   A    between atoms: C13_20   and  C14_25 
REMARK   9   A    between atoms: C14_25   and  N15_26 
REMARK   10  A    between atoms: C24_24   and  O25_32 
ROOT
ATOM      1 C27  MOL A   1      17.653 -18.682  -5.328  1.00  0.00    -0.024 A 
ATOM      2 C28  MOL A   1      18.708 -17.806  -5.643  1.00  0.00    -0.057 A 
ATOM      3 C29  MOL A   1      18.892 -16.628  -4.912  1.00  0.00    -0.061 A 
ATOM      4 C30  MOL A   1      18.026 -16.312  -3.862  1.00  0.00    -0.048 A 
ATOM      5 C31  MOL A   1      16.974 -17.176  -3.536  1.00  0.00     0.018 A 
ATOM      6 Br32 MOL A   1      15.803 -16.754  -2.084  1.00  0.00    -0.051 Br
ATOM      7 C33  MOL A   1      16.784 -18.353  -4.268  1.00  0.00    -0.043 A 
ENDROOT
BRANCH   1   8
ATOM      8  C6  MOL A   1      17.418 -19.918  -6.170  1.00  0.00     0.063 C 
BRANCH   8   9
ATOM      9  C5  MOL A   1      18.760 -20.469  -6.684  1.00  0.00     0.051 C 
BRANCH   9  12
ATOM     10  C1  MOL A   1      18.012 -23.333  -9.217  1.00  0.00     0.006 C 
ATOM     11  N2  MOL A   1      18.194 -22.588  -7.979  1.00  0.00    -0.359 N 
ATOM     12  C3  MOL A   1      18.590 -21.213  -7.977  1.00  0.00     0.222 C 
ATOM     13  O4  MOL A   1      18.798 -20.613  -9.067  1.00  0.00    -0.275 OA
ENDBRANCH   9  12
ENDBRANCH   8   9
BRANCH   8  14
ATOM     14  N7  MOL A   1      16.524 -19.606  -7.291  1.00  0.00    -0.346 N 
ATOM     15  C8  MOL A   1      15.112 -19.812  -7.229  1.00  0.00     0.258 C 
ATOM     16  O9  MOL A   1      14.584 -20.287  -6.189  1.00  0.00    -0.271 OA
BRANCH  15  17
ATOM     17 C10  MOL A   1      14.241 -19.452  -8.396  1.00  0.00     0.167 C 
BRANCH  17  18
ATOM     18 O11  MOL A   1      14.271 -18.045  -8.625  1.00  0.00    -0.480 OA
BRANCH  18  19
ATOM     19 C12  MOL A   1      13.638 -17.140  -7.768  1.00  0.00     0.166 A 
ATOM     20 C13  MOL A   1      12.228 -17.087  -7.674  1.00  0.00     0.012 A 
ATOM     21 C21  MOL A   1      11.636 -16.218  -6.742  1.00  0.00    -0.054 A 
ATOM     22 C22  MOL A   1      12.426 -15.382  -5.953  1.00  0.00    -0.058 A 
ATOM     23 C23  MOL A   1      13.815 -15.400  -6.084  1.00  0.00    -0.016 A 
ATOM     24 C24  MOL A   1      14.431 -16.276  -6.996  1.00  0.00     0.161 A 
BRANCH  20  25
ATOM     25 C14  MOL A   1      11.338 -17.940  -8.550  1.00  0.00     0.028 C 
BRANCH  25  26
ATOM     26 N15  MOL A   1      10.140 -18.374  -7.802  1.00  0.00    -0.287 NA
ATOM     27 C16  MOL A   1      10.190 -19.811  -7.487  1.00  0.00     0.064 C 
ATOM     28 C17  MOL A   1       9.006 -20.123  -8.381  1.00  0.00     0.272 C 
ATOM     29 F18  MOL A   1       7.885 -20.550  -7.691  1.00  0.00    -0.204 F 
ATOM     30 F19  MOL A   1       9.325 -20.911  -9.475  1.00  0.00    -0.204 F 
ATOM     31 C20  MOL A   1       8.996 -18.639  -8.691  1.00  0.00     0.064 C 
ENDBRANCH  25  26
ENDBRANCH  20  25
BRANCH  24  32
ATOM     32 O25  MOL A   1      15.823 -16.325  -7.158  1.00  0.00    -0.493 OA
ATOM     33 C26  MOL A   1      16.620 -15.235  -7.611  1.00  0.00     0.078 C 
ENDBRANCH  24  32
ENDBRANCH  18  19
ENDBRANCH  17  18
ENDBRANCH  15  17
ENDBRANCH   8  14
ENDBRANCH   1   8
TORSDOF 10
ENDMDL
MODEL 324
REMARK VINA RESULT:    -7.129      6.041     10.100
REMARK INTER + INTRA:         -12.344
REMARK INTER:                 -11.479
REMARK INTRA:                  -0.865
REMARK UNBOUND:                -1.048
REMARK  10 active torsions:
REMARK  status: ('A' for Active; 'I' for Inactive)
REMARK   1   A    between atoms:  C27_1   and   C6_8  
REMARK   2   A    between atoms:  C6_8    and   C5_9  
REMARK   3   A    between atoms:  C5_9    and   C3_12 
REMARK   4   A    between atoms:  C6_8    and   N7_14 
REMARK   5   A    between atoms:  C8_15   and  C10_17 
REMARK   6   A    between atoms: C10_17   and  O11_18 
REMARK   7   A    between atoms: O11_18   and  C12_19 
REMARK   8   A    between atoms: C13_20   and  C14_25 
REMARK   9   A    between atoms: C14_25   and  N15_26 
REMARK   10  A    between atoms: C24_24   and  O25_32 
ROOT
ATOM      1 C27  MOL A   1       6.817 -19.006  -8.616  1.00  0.00    -0.024 A 
ATOM      2 C28  MOL A   1       6.451 -17.707  -8.219  1.00  0.00    -0.057 A 
ATOM      3 C29  MOL A   1       5.241 -17.485  -7.553  1.00  0.00    -0.061 A 
ATOM      4 C30  MOL A   1       4.387 -18.555  -7.276  1.00  0.00    -0.048 A 
ATOM      5 C31  MOL A   1       4.740 -19.853  -7.662  1.00  0.00     0.018 A 
ATOM      6 Br32 MOL A   1       3.580 -21.321  -7.263  1.00  0.00    -0.051 Br
ATOM      7 C33  MOL A   1       5.946 -20.078  -8.333  1.00  0.00    -0.043 A 
ENDROOT
BRANCH   1   8
ATOM      8  C6  MOL A   1       8.092 -19.227  -9.400  1.00  0.00     0.063 C 
BRANCH   8   9
ATOM      9  C5  MOL A   1       7.827 -20.180 -10.580  1.00  0.00     0.051 C 
BRANCH   9  12
ATOM     10  C1  MOL A   1       8.886 -23.802  -9.617  1.00  0.00     0.006 C 
ATOM     11  N2  MOL A   1       8.130 -22.565  -9.739  1.00  0.00    -0.359 N 
ATOM     12  C3  MOL A   1       8.636 -21.439 -10.464  1.00  0.00     0.222 C 
ATOM     13  O4  MOL A   1       9.769 -21.499 -11.014  1.00  0.00    -0.275 OA
ENDBRANCH   9  12
ENDBRANCH   8   9
BRANCH   8  14
ATOM     14  N7  MOL A   1       9.139 -19.767  -8.527  1.00  0.00    -0.346 N 
ATOM     15  C8  MOL A   1      10.215 -18.967  -8.031  1.00  0.00     0.258 C 
ATOM     16  O9  MOL A   1      10.301 -17.751  -8.348  1.00  0.00    -0.271 OA
BRANCH  15  17
ATOM     17 C10  MOL A   1      11.245 -19.563  -7.119  1.00  0.00     0.167 C 
BRANCH  17  18
ATOM     18 O11  MOL A   1      12.527 -19.558  -7.743  1.00  0.00    -0.480 OA
BRANCH  18  19
ATOM     19 C12  MOL A   1      13.694 -19.880  -7.044  1.00  0.00     0.166 A 
ATOM     20 C13  MOL A   1      14.490 -18.874  -6.450  1.00  0.00     0.012 A 
ATOM     21 C21  MOL A   1      15.611 -19.248  -5.689  1.00  0.00    -0.054 A 
ATOM     22 C22  MOL A   1      15.963 -20.592  -5.561  1.00  0.00    -0.058 A 
ATOM     23 C23  MOL A   1      15.204 -21.579  -6.190  1.00  0.00    -0.016 A 
ATOM     24 C24  MOL A   1      14.066 -21.230  -6.940  1.00  0.00     0.161 A 
BRANCH  20  25
ATOM     25 C14  MOL A   1      14.171 -17.405  -6.612  1.00  0.00     0.028 C 
BRANCH  25  26
ATOM     26 N15  MOL A   1      14.733 -16.891  -7.877  1.00  0.00    -0.287 NA
ATOM     27 C16  MOL A   1      16.205 -16.944  -7.877  1.00  0.00     0.064 C 
ATOM     28 C17  MOL A   1      16.332 -15.434  -7.905  1.00  0.00     0.272 C 
ATOM     29 F18  MOL A   1      16.878 -14.944  -9.079  1.00  0.00    -0.204 F 
ATOM     30 F19  MOL A   1      16.898 -14.900  -6.758  1.00  0.00    -0.204 F 
ATOM     31 C20  MOL A   1      14.816 -15.420  -7.891  1.00  0.00     0.064 C 
ENDBRANCH  25  26
ENDBRANCH  20  25
BRANCH  24  32
ATOM     32 O25  MOL A   1      13.277 -22.191  -7.589  1.00  0.00    -0.493 OA
ATOM     33 C26  MOL A   1      12.822 -23.399  -6.988  1.00  0.00     0.078 C 
ENDBRANCH  24  32
ENDBRANCH  18  19
ENDBRANCH  17  18
ENDBRANCH  15  17
ENDBRANCH   8  14
ENDBRANCH   1   8
TORSDOF 10
ENDMDL
MODEL 325
REMARK VINA RESULT:    -7.128      6.274     10.903
REMARK INTER + INTRA:         -12.343
REMARK INTER:                 -10.651
REMARK INTRA:                  -1.692
REMARK UNBOUND:                -1.048
REMARK  10 active torsions:
REMARK  status: ('A' for Active; 'I' for Inactive)
REMARK   1   A    between atoms:  C27_1   and   C6_8  
REMARK   2   A    between atoms:  C6_8    and   C5_9  
REMARK   3   A    between atoms:  C5_9    and   C3_12 
REMARK   4   A    between atoms:  C6_8    and   N7_14 
REMARK   5   A    between atoms:  C8_15   and  C10_17 
REMARK   6   A    between atoms: C10_17   and  O11_18 
REMARK   7   A    between atoms: O11_18   and  C12_19 
REMARK   8   A    between atoms: C13_20   and  C14_25 
REMARK   9   A    between atoms: C14_25   and  N15_26 
REMARK   10  A    between atoms: C24_24   and  O25_32 
ROOT
ATOM      1 C27  MOL A   1       9.548 -21.465  -9.181  1.00  0.00    -0.024 A 
ATOM      2 C28  MOL A   1       8.543 -22.325  -9.659  1.00  0.00    -0.057 A 
ATOM      3 C29  MOL A   1       8.766 -23.705  -9.727  1.00  0.00    -0.061 A 
ATOM      4 C30  MOL A   1       9.992 -24.238  -9.318  1.00  0.00    -0.048 A 
ATOM      5 C31  MOL A   1      10.998 -23.393  -8.837  1.00  0.00     0.018 A 
ATOM      6 Br32 MOL A   1      12.668 -24.126  -8.257  1.00  0.00    -0.051 Br
ATOM      7 C33  MOL A   1      10.781 -22.013  -8.773  1.00  0.00    -0.043 A 
ENDROOT
BRANCH   1   8
ATOM      8  C6  MOL A   1       9.325 -19.968  -9.179  1.00  0.00     0.063 C 
BRANCH   8   9
ATOM      9  C5  MOL A   1       8.189 -19.603 -10.152  1.00  0.00     0.051 C 
BRANCH   9  12
ATOM     10  C1  MOL A   1       6.909 -15.974 -10.757  1.00  0.00     0.006 C 
ATOM     11  N2  MOL A   1       7.427 -17.317 -10.977  1.00  0.00    -0.359 N 
ATOM     12  C3  MOL A   1       7.665 -18.221  -9.892  1.00  0.00     0.222 C 
ATOM     13  O4  MOL A   1       7.430 -17.861  -8.706  1.00  0.00    -0.275 OA
ENDBRANCH   9  12
ENDBRANCH   8   9
BRANCH   8  14
ATOM     14  N7  MOL A   1      10.562 -19.270  -9.545  1.00  0.00    -0.346 N 
ATOM     15  C8  MOL A   1      11.189 -18.315  -8.686  1.00  0.00     0.258 C 
ATOM     16  O9  MOL A   1      10.678 -18.033  -7.570  1.00  0.00    -0.271 OA
BRANCH  15  17
ATOM     17 C10  MOL A   1      12.468 -17.649  -9.098  1.00  0.00     0.167 C 
BRANCH  17  18
ATOM     18 O11  MOL A   1      13.369 -17.574  -7.995  1.00  0.00    -0.480 OA
BRANCH  18  19
ATOM     19 C12  MOL A   1      14.553 -16.834  -8.055  1.00  0.00     0.166 A 
ATOM     20 C13  MOL A   1      15.758 -17.419  -8.509  1.00  0.00     0.012 A 
ATOM     21 C21  MOL A   1      16.906 -16.618  -8.627  1.00  0.00    -0.054 A 
ATOM     22 C22  MOL A   1      16.873 -15.273  -8.256  1.00  0.00    -0.058 A 
ATOM     23 C23  MOL A   1      15.696 -14.712  -7.760  1.00  0.00    -0.016 A 
ATOM     24 C24  MOL A   1      14.528 -15.489  -7.652  1.00  0.00     0.161 A 
BRANCH  20  25
ATOM     25 C14  MOL A   1      15.845 -18.885  -8.870  1.00  0.00     0.028 C 
BRANCH  25  26
ATOM     26 N15  MOL A   1      16.229 -19.685  -7.689  1.00  0.00    -0.287 NA
ATOM     27 C16  MOL A   1      17.169 -20.761  -8.045  1.00  0.00     0.064 C 
ATOM     28 C17  MOL A   1      16.167 -21.848  -7.707  1.00  0.00     0.272 C 
ATOM     29 F18  MOL A   1      16.529 -22.616  -6.614  1.00  0.00    -0.204 F 
ATOM     30 F19  MOL A   1      15.757 -22.589  -8.803  1.00  0.00    -0.204 F 
ATOM     31 C20  MOL A   1      15.225 -20.711  -7.362  1.00  0.00     0.064 C 
ENDBRANCH  25  26
ENDBRANCH  20  25
BRANCH  24  32
ATOM     32 O25  MOL A   1      13.325 -14.963  -7.158  1.00  0.00    -0.493 OA
ATOM     33 C26  MOL A   1      12.902 -15.056  -5.802  1.00  0.00     0.078 C 
ENDBRANCH  24  32
ENDBRANCH  18  19
ENDBRANCH  17  18
ENDBRANCH  15  17
ENDBRANCH   8  14
ENDBRANCH   1   8
TORSDOF 10
ENDMDL
MODEL 326
REMARK VINA RESULT:    -7.126     11.247     14.370
REMARK INTER + INTRA:         -12.340
REMARK INTER:                 -10.806
REMARK INTRA:                  -1.534
REMARK UNBOUND:                -1.048
REMARK  10 active torsions:
REMARK  status: ('A' for Active; 'I' for Inactive)
REMARK   1   A    between atoms:  C27_1   and   C6_8  
REMARK   2   A    between atoms:  C6_8    and   C5_9  
REMARK   3   A    between atoms:  C5_9    and   C3_12 
REMARK   4   A    between atoms:  C6_8    and   N7_14 
REMARK   5   A    between atoms:  C8_15   and  C10_17 
REMARK   6   A    between atoms: C10_17   and  O11_18 
REMARK   7   A    between atoms: O11_18   and  C12_19 
REMARK   8   A    between atoms: C13_20   and  C14_25 
REMARK   9   A    between atoms: C14_25   and  N15_26 
REMARK   10  A    between atoms: C24_24   and  O25_32 
ROOT
ATOM      1 C27  MOL A   1      17.791 -17.651  -8.847  1.00  0.00    -0.024 A 
ATOM      2 C28  MOL A   1      18.600 -18.803  -8.826  1.00  0.00    -0.057 A 
ATOM      3 C29  MOL A   1      19.461 -19.082  -9.892  1.00  0.00    -0.061 A 
ATOM      4 C30  MOL A   1      19.524 -18.217 -10.988  1.00  0.00    -0.048 A 
ATOM      5 C31  MOL A   1      18.728 -17.067 -11.021  1.00  0.00     0.018 A 
ATOM      6 Br32 MOL A   1      18.831 -15.873 -12.512  1.00  0.00    -0.051 Br
ATOM      7 C33  MOL A   1      17.862 -16.787  -9.959  1.00  0.00    -0.043 A 
ENDROOT
BRANCH   1   8
ATOM      8  C6  MOL A   1      16.810 -17.394  -7.725  1.00  0.00     0.063 C 
BRANCH   8   9
ATOM      9  C5  MOL A   1      16.737 -15.887  -7.423  1.00  0.00     0.051 C 
BRANCH   9  12
ATOM     10  C1  MOL A   1      13.482 -14.692  -5.647  1.00  0.00     0.006 C 
ATOM     11  N2  MOL A   1      14.846 -15.140  -5.888  1.00  0.00    -0.359 N 
ATOM     12  C3  MOL A   1      15.321 -15.436  -7.206  1.00  0.00     0.222 C 
ATOM     13  O4  MOL A   1      14.550 -15.318  -8.197  1.00  0.00    -0.275 OA
ENDBRANCH   9  12
ENDBRANCH   8   9
BRANCH   8  14
ATOM     14  N7  MOL A   1      17.202 -18.143  -6.526  1.00  0.00    -0.346 N 
ATOM     15  C8  MOL A   1      16.247 -18.734  -5.642  1.00  0.00     0.258 C 
ATOM     16  O9  MOL A   1      15.013 -18.617  -5.869  1.00  0.00    -0.271 OA
BRANCH  15  17
ATOM     17 C10  MOL A   1      16.703 -19.511  -4.443  1.00  0.00     0.167 C 
BRANCH  17  18
ATOM     18 O11  MOL A   1      17.354 -18.653  -3.510  1.00  0.00    -0.480 OA
BRANCH  18  19
ATOM     19 C12  MOL A   1      16.743 -17.497  -3.014  1.00  0.00     0.166 A 
ATOM     20 C13  MOL A   1      15.596 -17.572  -2.191  1.00  0.00     0.012 A 
ATOM     21 C21  MOL A   1      15.062 -16.390  -1.651  1.00  0.00    -0.054 A 
ATOM     22 C22  MOL A   1      15.626 -15.152  -1.960  1.00  0.00    -0.058 A 
ATOM     23 C23  MOL A   1      16.727 -15.077  -2.813  1.00  0.00    -0.016 A 
ATOM     24 C24  MOL A   1      17.292 -16.249  -3.351  1.00  0.00     0.161 A 
BRANCH  20  25
ATOM     25 C14  MOL A   1      14.926 -18.891  -1.877  1.00  0.00     0.028 C 
BRANCH  25  26
ATOM     26 N15  MOL A   1      15.560 -19.525  -0.703  1.00  0.00    -0.287 NA
ATOM     27 C16  MOL A   1      15.107 -20.916  -0.528  1.00  0.00     0.064 C 
ATOM     28 C17  MOL A   1      14.402 -20.600   0.776  1.00  0.00     0.272 C 
ATOM     29 F18  MOL A   1      14.977 -21.206   1.880  1.00  0.00    -0.204 F 
ATOM     30 F19  MOL A   1      13.025 -20.738   0.713  1.00  0.00    -0.204 F 
ATOM     31 C20  MOL A   1      14.875 -19.176   0.554  1.00  0.00     0.064 C 
ENDBRANCH  25  26
ENDBRANCH  20  25
BRANCH  24  32
ATOM     32 O25  MOL A   1      18.398 -16.216  -4.212  1.00  0.00    -0.493 OA
ATOM     33 C26  MOL A   1      19.428 -15.235  -4.164  1.00  0.00     0.078 C 
ENDBRANCH  24  32
ENDBRANCH  18  19
ENDBRANCH  17  18
ENDBRANCH  15  17
ENDBRANCH   8  14
ENDBRANCH   1   8
TORSDOF 10
ENDMDL
MODEL 327
REMARK VINA RESULT:    -7.124      6.734      9.883
REMARK INTER + INTRA:         -12.337
REMARK INTER:                 -12.284
REMARK INTRA:                  -0.052
REMARK UNBOUND:                -1.048
REMARK  10 active torsions:
REMARK  status: ('A' for Active; 'I' for Inactive)
REMARK   1   A    between atoms:  C27_1   and   C6_8  
REMARK   2   A    between atoms:  C6_8    and   C5_9  
REMARK   3   A    between atoms:  C5_9    and   C3_12 
REMARK   4   A    between atoms:  C6_8    and   N7_14 
REMARK   5   A    between atoms:  C8_15   and  C10_17 
REMARK   6   A    between atoms: C10_17   and  O11_18 
REMARK   7   A    between atoms: O11_18   and  C12_19 
REMARK   8   A    between atoms: C13_20   and  C14_25 
REMARK   9   A    between atoms: C14_25   and  N15_26 
REMARK   10  A    between atoms: C24_24   and  O25_32 
ROOT
ATOM      1 C27  MOL A   1      -0.324 -22.555  -9.912  1.00  0.00    -0.024 A 
ATOM      2 C28  MOL A   1      -0.468 -21.676 -11.000  1.00  0.00    -0.057 A 
ATOM      3 C29  MOL A   1      -1.126 -22.091 -12.163  1.00  0.00    -0.061 A 
ATOM      4 C30  MOL A   1      -1.645 -23.385 -12.251  1.00  0.00    -0.048 A 
ATOM      5 C31  MOL A   1      -1.512 -24.269 -11.174  1.00  0.00     0.018 A 
ATOM      6 Br32 MOL A   1      -2.243 -26.033 -11.287  1.00  0.00    -0.051 Br
ATOM      7 C33  MOL A   1      -0.850 -23.859 -10.012  1.00  0.00    -0.043 A 
ENDROOT
BRANCH   1   8
ATOM      8  C6  MOL A   1       0.452 -22.123  -8.686  1.00  0.00     0.063 C 
BRANCH   8   9
ATOM      9  C5  MOL A   1      -0.098 -20.786  -8.158  1.00  0.00     0.051 C 
BRANCH   9  12
ATOM     10  C1  MOL A   1      -3.801 -20.139  -7.135  1.00  0.00     0.006 C 
ATOM     11  N2  MOL A   1      -2.481 -19.994  -7.733  1.00  0.00    -0.359 N 
ATOM     12  C3  MOL A   1      -1.446 -20.959  -7.519  1.00  0.00     0.222 C 
ATOM     13  O4  MOL A   1      -1.661 -21.967  -6.793  1.00  0.00    -0.275 OA
ENDBRANCH   9  12
ENDBRANCH   8   9
BRANCH   8  14
ATOM     14  N7  MOL A   1       1.879 -22.005  -9.004  1.00  0.00    -0.346 N 
ATOM     15  C8  MOL A   1       2.732 -21.051  -8.368  1.00  0.00     0.258 C 
ATOM     16  O9  MOL A   1       2.268 -20.261  -7.504  1.00  0.00    -0.271 OA
BRANCH  15  17
ATOM     17 C10  MOL A   1       4.190 -20.990  -8.711  1.00  0.00     0.167 C 
BRANCH  17  18
ATOM     18 O11  MOL A   1       4.905 -20.251  -7.724  1.00  0.00    -0.480 OA
BRANCH  18  19
ATOM     19 C12  MOL A   1       5.892 -19.321  -8.063  1.00  0.00     0.166 A 
ATOM     20 C13  MOL A   1       7.124 -19.733  -8.621  1.00  0.00     0.012 A 
ATOM     21 C21  MOL A   1       8.055 -18.760  -9.020  1.00  0.00    -0.054 A 
ATOM     22 C22  MOL A   1       7.790 -17.404  -8.826  1.00  0.00    -0.058 A 
ATOM     23 C23  MOL A   1       6.595 -17.002  -8.229  1.00  0.00    -0.016 A 
ATOM     24 C24  MOL A   1       5.638 -17.958  -7.839  1.00  0.00     0.161 A 
BRANCH  20  25
ATOM     25 C14  MOL A   1       7.469 -21.195  -8.798  1.00  0.00     0.028 C 
BRANCH  25  26
ATOM     26 N15  MOL A   1       8.409 -21.371  -9.924  1.00  0.00    -0.287 NA
ATOM     27 C16  MOL A   1       8.047 -22.531 -10.756  1.00  0.00     0.064 C 
ATOM     28 C17  MOL A   1       9.303 -23.289 -10.374  1.00  0.00     0.272 C 
ATOM     29 F18  MOL A   1      10.180 -23.477 -11.428  1.00  0.00    -0.204 F 
ATOM     30 F19  MOL A   1       9.059 -24.436  -9.636  1.00  0.00    -0.204 F 
ATOM     31 C20  MOL A   1       9.634 -22.081  -9.519  1.00  0.00     0.064 C 
ENDBRANCH  25  26
ENDBRANCH  20  25
BRANCH  24  32
ATOM     32 O25  MOL A   1       4.425 -17.595  -7.235  1.00  0.00    -0.493 OA
ATOM     33 C26  MOL A   1       4.190 -16.351  -6.585  1.00  0.00     0.078 C 
ENDBRANCH  24  32
ENDBRANCH  18  19
ENDBRANCH  17  18
ENDBRANCH  15  17
ENDBRANCH   8  14
ENDBRANCH   1   8
TORSDOF 10
ENDMDL
MODEL 328
REMARK VINA RESULT:    -7.123      6.591     11.286
REMARK INTER + INTRA:         -12.336
REMARK INTER:                 -11.063
REMARK INTRA:                  -1.274
REMARK UNBOUND:                -1.048
REMARK  10 active torsions:
REMARK  status: ('A' for Active; 'I' for Inactive)
REMARK   1   A    between atoms:  C27_1   and   C6_8  
REMARK   2   A    between atoms:  C6_8    and   C5_9  
REMARK   3   A    between atoms:  C5_9    and   C3_12 
REMARK   4   A    between atoms:  C6_8    and   N7_14 
REMARK   5   A    between atoms:  C8_15   and  C10_17 
REMARK   6   A    between atoms: C10_17   and  O11_18 
REMARK   7   A    between atoms: O11_18   and  C12_19 
REMARK   8   A    between atoms: C13_20   and  C14_25 
REMARK   9   A    between atoms: C14_25   and  N15_26 
REMARK   10  A    between atoms: C24_24   and  O25_32 
ROOT
ATOM      1 C27  MOL A   1       8.756 -18.059 -10.374  1.00  0.00    -0.024 A 
ATOM      2 C28  MOL A   1       8.754 -18.555 -11.690  1.00  0.00    -0.057 A 
ATOM      3 C29  MOL A   1       7.851 -18.052 -12.634  1.00  0.00    -0.061 A 
ATOM      4 C30  MOL A   1       6.944 -17.052 -12.273  1.00  0.00    -0.048 A 
ATOM      5 C31  MOL A   1       6.938 -16.548 -10.968  1.00  0.00     0.018 A 
ATOM      6 Br32 MOL A   1       5.711 -15.163 -10.481  1.00  0.00    -0.051 Br
ATOM      7 C33  MOL A   1       7.835 -17.051 -10.021  1.00  0.00    -0.043 A 
ENDROOT
BRANCH   1   8
ATOM      8  C6  MOL A   1       9.686 -18.658  -9.341  1.00  0.00     0.063 C 
BRANCH   8   9
ATOM      9  C5  MOL A   1       8.878 -19.141  -8.122  1.00  0.00     0.051 C 
BRANCH   9  12
ATOM     10  C1  MOL A   1       5.836 -21.543  -8.507  1.00  0.00     0.006 C 
ATOM     11  N2  MOL A   1       6.655 -20.381  -8.192  1.00  0.00    -0.359 N 
ATOM     12  C3  MOL A   1       8.063 -20.359  -8.449  1.00  0.00     0.222 C 
ATOM     13  O4  MOL A   1       8.629 -21.365  -8.958  1.00  0.00    -0.275 OA
ENDBRANCH   9  12
ENDBRANCH   8   9
BRANCH   8  14
ATOM     14  N7  MOL A   1      10.696 -17.675  -8.934  1.00  0.00    -0.346 N 
ATOM     15  C8  MOL A   1      12.030 -18.045  -8.581  1.00  0.00     0.258 C 
ATOM     16  O9  MOL A   1      12.380 -19.255  -8.599  1.00  0.00    -0.271 OA
BRANCH  15  17
ATOM     17 C10  MOL A   1      13.031 -16.996  -8.198  1.00  0.00     0.167 C 
BRANCH  17  18
ATOM     18 O11  MOL A   1      13.709 -17.368  -6.999  1.00  0.00    -0.480 OA
BRANCH  18  19
ATOM     19 C12  MOL A   1      15.010 -16.942  -6.721  1.00  0.00     0.166 A 
ATOM     20 C13  MOL A   1      16.131 -17.685  -7.156  1.00  0.00     0.012 A 
ATOM     21 C21  MOL A   1      17.421 -17.179  -6.923  1.00  0.00    -0.054 A 
ATOM     22 C22  MOL A   1      17.598 -15.982  -6.230  1.00  0.00    -0.058 A 
ATOM     23 C23  MOL A   1      16.491 -15.275  -5.758  1.00  0.00    -0.016 A 
ATOM     24 C24  MOL A   1      15.189 -15.752  -5.996  1.00  0.00     0.161 A 
BRANCH  20  25
ATOM     25 C14  MOL A   1      15.981 -19.013  -7.864  1.00  0.00     0.028 C 
BRANCH  25  26
ATOM     26 N15  MOL A   1      16.763 -20.058  -7.173  1.00  0.00    -0.287 NA
ATOM     27 C16  MOL A   1      16.892 -21.272  -7.996  1.00  0.00     0.064 C 
ATOM     28 C17  MOL A   1      16.064 -22.102  -7.035  1.00  0.00     0.272 C 
ATOM     29 F18  MOL A   1      16.784 -23.097  -6.398  1.00  0.00    -0.204 F 
ATOM     30 F19  MOL A   1      14.859 -22.532  -7.566  1.00  0.00    -0.204 F 
ATOM     31 C20  MOL A   1      15.942 -20.828  -6.222  1.00  0.00     0.064 C 
ENDBRANCH  25  26
ENDBRANCH  20  25
BRANCH  24  32
ATOM     32 O25  MOL A   1      14.051 -15.073  -5.538  1.00  0.00    -0.493 OA
ATOM     33 C26  MOL A   1      13.950 -14.435  -4.269  1.00  0.00     0.078 C 
ENDBRANCH  24  32
ENDBRANCH  18  19
ENDBRANCH  17  18
ENDBRANCH  15  17
ENDBRANCH   8  14
ENDBRANCH   1   8
TORSDOF 10
ENDMDL
MODEL 329
REMARK VINA RESULT:    -7.123      8.960     13.085
REMARK INTER + INTRA:         -12.336
REMARK INTER:                 -11.110
REMARK INTRA:                  -1.226
REMARK UNBOUND:                -1.048
REMARK  10 active torsions:
REMARK  status: ('A' for Active; 'I' for Inactive)
REMARK   1   A    between atoms:  C27_1   and   C6_8  
REMARK   2   A    between atoms:  C6_8    and   C5_9  
REMARK   3   A    between atoms:  C5_9    and   C3_12 
REMARK   4   A    between atoms:  C6_8    and   N7_14 
REMARK   5   A    between atoms:  C8_15   and  C10_17 
REMARK   6   A    between atoms: C10_17   and  O11_18 
REMARK   7   A    between atoms: O11_18   and  C12_19 
REMARK   8   A    between atoms: C13_20   and  C14_25 
REMARK   9   A    between atoms: C14_25   and  N15_26 
REMARK   10  A    between atoms: C24_24   and  O25_32 
ROOT
ATOM      1 C27  MOL A   1      14.337 -17.724   0.553  1.00  0.00    -0.024 A 
ATOM      2 C28  MOL A   1      13.076 -18.084   1.064  1.00  0.00    -0.057 A 
ATOM      3 C29  MOL A   1      12.767 -19.427   1.304  1.00  0.00    -0.061 A 
ATOM      4 C30  MOL A   1      13.711 -20.422   1.037  1.00  0.00    -0.048 A 
ATOM      5 C31  MOL A   1      14.970 -20.078   0.531  1.00  0.00     0.018 A 
ATOM      6 Br32 MOL A   1      16.268 -21.440   0.186  1.00  0.00    -0.051 Br
ATOM      7 C33  MOL A   1      15.280 -18.737   0.285  1.00  0.00    -0.043 A 
ENDROOT
BRANCH   1   8
ATOM      8  C6  MOL A   1      14.637 -16.277   0.228  1.00  0.00     0.063 C 
BRANCH   8   9
ATOM      9  C5  MOL A   1      14.002 -15.356   1.285  1.00  0.00     0.051 C 
BRANCH   9  12
ATOM     10  C1  MOL A   1      17.413 -14.073   2.662  1.00  0.00     0.006 C 
ATOM     11  N2  MOL A   1      16.390 -14.625   1.785  1.00  0.00    -0.359 N 
ATOM     12  C3  MOL A   1      15.036 -14.793   2.217  1.00  0.00     0.222 C 
ATOM     13  O4  MOL A   1      14.701 -14.466   3.388  1.00  0.00    -0.275 OA
ENDBRANCH   9  12
ENDBRANCH   8   9
BRANCH   8  14
ATOM     14  N7  MOL A   1      14.141 -15.944  -1.112  1.00  0.00    -0.346 N 
ATOM     15  C8  MOL A   1      14.794 -14.997  -1.960  1.00  0.00     0.258 C 
ATOM     16  O9  MOL A   1      15.833 -14.402  -1.567  1.00  0.00    -0.271 OA
BRANCH  15  17
ATOM     17 C10  MOL A   1      14.259 -14.713  -3.332  1.00  0.00     0.167 C 
BRANCH  17  18
ATOM     18 O11  MOL A   1      14.657 -15.733  -4.244  1.00  0.00    -0.480 OA
BRANCH  18  19
ATOM     19 C12  MOL A   1      15.286 -15.439  -5.457  1.00  0.00     0.166 A 
ATOM     20 C13  MOL A   1      14.535 -15.197  -6.630  1.00  0.00     0.012 A 
ATOM     21 C21  MOL A   1      15.205 -14.827  -7.809  1.00  0.00    -0.054 A 
ATOM     22 C22  MOL A   1      16.598 -14.747  -7.836  1.00  0.00    -0.058 A 
ATOM     23 C23  MOL A   1      17.339 -15.036  -6.690  1.00  0.00    -0.016 A 
ATOM     24 C24  MOL A   1      16.689 -15.389  -5.493  1.00  0.00     0.161 A 
BRANCH  20  25
ATOM     25 C14  MOL A   1      13.028 -15.326  -6.653  1.00  0.00     0.028 C 
BRANCH  25  26
ATOM     26 N15  MOL A   1      12.631 -16.747  -6.565  1.00  0.00    -0.287 NA
ATOM     27 C16  MOL A   1      13.370 -17.576  -7.533  1.00  0.00     0.064 C 
ATOM     28 C17  MOL A   1      12.117 -17.896  -8.325  1.00  0.00     0.272 C 
ATOM     29 F18  MOL A   1      11.749 -19.229  -8.266  1.00  0.00    -0.204 F 
ATOM     30 F19  MOL A   1      12.117 -17.370  -9.606  1.00  0.00    -0.204 F 
ATOM     31 C20  MOL A   1      11.395 -17.025  -7.316  1.00  0.00     0.064 C 
ENDBRANCH  25  26
ENDBRANCH  20  25
BRANCH  24  32
ATOM     32 O25  MOL A   1      17.398 -15.687  -4.320  1.00  0.00    -0.493 OA
ATOM     33 C26  MOL A   1      18.802 -15.512  -4.161  1.00  0.00     0.078 C 
ENDBRANCH  24  32
ENDBRANCH  18  19
ENDBRANCH  17  18
ENDBRANCH  15  17
ENDBRANCH   8  14
ENDBRANCH   1   8
TORSDOF 10
ENDMDL
MODEL 330
REMARK VINA RESULT:    -7.120      7.993     11.814
REMARK INTER + INTRA:         -12.330
REMARK INTER:                 -10.570
REMARK INTRA:                  -1.761
REMARK UNBOUND:                -1.048
REMARK  10 active torsions:
REMARK  status: ('A' for Active; 'I' for Inactive)
REMARK   1   A    between atoms:  C27_1   and   C6_8  
REMARK   2   A    between atoms:  C6_8    and   C5_9  
REMARK   3   A    between atoms:  C5_9    and   C3_12 
REMARK   4   A    between atoms:  C6_8    and   N7_14 
REMARK   5   A    between atoms:  C8_15   and  C10_17 
REMARK   6   A    between atoms: C10_17   and  O11_18 
REMARK   7   A    between atoms: O11_18   and  C12_19 
REMARK   8   A    between atoms: C13_20   and  C14_25 
REMARK   9   A    between atoms: C14_25   and  N15_26 
REMARK   10  A    between atoms: C24_24   and  O25_32 
ROOT
ATOM      1 C27  MOL A   1      11.625 -18.707  -8.388  1.00  0.00    -0.024 A 
ATOM      2 C28  MOL A   1      11.109 -20.015  -8.435  1.00  0.00    -0.057 A 
ATOM      3 C29  MOL A   1       9.731 -20.228  -8.552  1.00  0.00    -0.061 A 
ATOM      4 C30  MOL A   1       8.856 -19.140  -8.623  1.00  0.00    -0.048 A 
ATOM      5 C31  MOL A   1       9.357 -17.834  -8.580  1.00  0.00     0.018 A 
ATOM      6 Br32 MOL A   1       8.161 -16.345  -8.699  1.00  0.00    -0.051 Br
ATOM      7 C33  MOL A   1      10.733 -17.617  -8.458  1.00  0.00    -0.043 A 
ENDROOT
BRANCH   1   8
ATOM      8  C6  MOL A   1      13.108 -18.485  -8.188  1.00  0.00     0.063 C 
BRANCH   8   9
ATOM      9  C5  MOL A   1      13.839 -19.838  -8.114  1.00  0.00     0.051 C 
BRANCH   9  12
ATOM     10  C1  MOL A   1      16.865 -18.638 -10.252  1.00  0.00     0.006 C 
ATOM     11  N2  MOL A   1      15.534 -18.753  -9.674  1.00  0.00    -0.359 N 
ATOM     12  C3  MOL A   1      15.218 -19.752  -8.699  1.00  0.00     0.222 C 
ATOM     13  O4  MOL A   1      16.103 -20.568  -8.321  1.00  0.00    -0.275 OA
ENDBRANCH   9  12
ENDBRANCH   8   9
BRANCH   8  14
ATOM     14  N7  MOL A   1      13.346 -17.702  -6.970  1.00  0.00    -0.346 N 
ATOM     15  C8  MOL A   1      14.025 -16.445  -6.984  1.00  0.00     0.258 C 
ATOM     16  O9  MOL A   1      14.458 -15.969  -8.067  1.00  0.00    -0.271 OA
BRANCH  15  17
ATOM     17 C10  MOL A   1      14.218 -15.674  -5.713  1.00  0.00     0.167 C 
BRANCH  17  18
ATOM     18 O11  MOL A   1      15.514 -15.921  -5.171  1.00  0.00    -0.480 OA
BRANCH  18  19
ATOM     19 C12  MOL A   1      15.802 -17.075  -4.438  1.00  0.00     0.166 A 
ATOM     20 C13  MOL A   1      15.324 -17.241  -3.118  1.00  0.00     0.012 A 
ATOM     21 C21  MOL A   1      15.572 -18.450  -2.446  1.00  0.00    -0.054 A 
ATOM     22 C22  MOL A   1      16.321 -19.457  -3.054  1.00  0.00    -0.058 A 
ATOM     23 C23  MOL A   1      16.835 -19.271  -4.338  1.00  0.00    -0.016 A 
ATOM     24 C24  MOL A   1      16.583 -18.076  -5.038  1.00  0.00     0.161 A 
BRANCH  20  25
ATOM     25 C14  MOL A   1      14.553 -16.151  -2.407  1.00  0.00     0.028 C 
BRANCH  25  26
ATOM     26 N15  MOL A   1      15.473 -15.102  -1.920  1.00  0.00    -0.287 NA
ATOM     27 C16  MOL A   1      15.794 -15.281  -0.494  1.00  0.00     0.064 C 
ATOM     28 C17  MOL A   1      15.086 -14.001  -0.099  1.00  0.00     0.272 C 
ATOM     29 F18  MOL A   1      15.937 -13.019   0.378  1.00  0.00    -0.204 F 
ATOM     30 F19  MOL A   1      13.966 -14.204   0.691  1.00  0.00    -0.204 F 
ATOM     31 C20  MOL A   1      14.764 -13.858  -1.574  1.00  0.00     0.064 C 
ENDBRANCH  25  26
ENDBRANCH  20  25
BRANCH  24  32
ATOM     32 O25  MOL A   1      17.082 -17.849  -6.329  1.00  0.00    -0.493 OA
ATOM     33 C26  MOL A   1      18.349 -18.301  -6.794  1.00  0.00     0.078 C 
ENDBRANCH  24  32
ENDBRANCH  18  19
ENDBRANCH  17  18
ENDBRANCH  15  17
ENDBRANCH   8  14
ENDBRANCH   1   8
TORSDOF 10
ENDMDL
MODEL 331
REMARK VINA RESULT:    -7.118     10.061     12.850
REMARK INTER + INTRA:         -12.327
REMARK INTER:                 -10.748
REMARK INTRA:                  -1.579
REMARK UNBOUND:                -1.048
REMARK  10 active torsions:
REMARK  status: ('A' for Active; 'I' for Inactive)
REMARK   1   A    between atoms:  C27_1   and   C6_8  
REMARK   2   A    between atoms:  C6_8    and   C5_9  
REMARK   3   A    between atoms:  C5_9    and   C3_12 
REMARK   4   A    between atoms:  C6_8    and   N7_14 
REMARK   5   A    between atoms:  C8_15   and  C10_17 
REMARK   6   A    between atoms: C10_17   and  O11_18 
REMARK   7   A    between atoms: O11_18   and  C12_19 
REMARK   8   A    between atoms: C13_20   and  C14_25 
REMARK   9   A    between atoms: C14_25   and  N15_26 
REMARK   10  A    between atoms: C24_24   and  O25_32 
ROOT
ATOM      1 C27  MOL A   1      15.627 -18.852  -2.818  1.00  0.00    -0.024 A 
ATOM      2 C28  MOL A   1      15.432 -17.598  -2.210  1.00  0.00    -0.057 A 
ATOM      3 C29  MOL A   1      14.881 -17.511  -0.927  1.00  0.00    -0.061 A 
ATOM      4 C30  MOL A   1      14.519 -18.673  -0.240  1.00  0.00    -0.048 A 
ATOM      5 C31  MOL A   1      14.711 -19.926  -0.831  1.00  0.00     0.018 A 
ATOM      6 Br32 MOL A   1      14.235 -21.517   0.119  1.00  0.00    -0.051 Br
ATOM      7 C33  MOL A   1      15.256 -20.017  -2.116  1.00  0.00    -0.043 A 
ENDROOT
BRANCH   1   8
ATOM      8  C6  MOL A   1      16.156 -18.933  -4.234  1.00  0.00     0.063 C 
BRANCH   8   9
ATOM      9  C5  MOL A   1      17.434 -18.086  -4.368  1.00  0.00     0.051 C 
BRANCH   9  12
ATOM     10  C1  MOL A   1      19.104 -20.553  -6.879  1.00  0.00     0.006 C 
ATOM     11  N2  MOL A   1      18.241 -19.997  -5.847  1.00  0.00    -0.359 N 
ATOM     12  C3  MOL A   1      18.347 -18.632  -5.428  1.00  0.00     0.222 C 
ATOM     13  O4  MOL A   1      19.209 -17.875  -5.952  1.00  0.00    -0.275 OA
ENDBRANCH   9  12
ENDBRANCH   8   9
BRANCH   8  14
ATOM     14  N7  MOL A   1      15.135 -18.481  -5.185  1.00  0.00    -0.346 N 
ATOM     15  C8  MOL A   1      14.636 -19.315  -6.233  1.00  0.00     0.258 C 
ATOM     16  O9  MOL A   1      15.079 -20.485  -6.378  1.00  0.00    -0.271 OA
BRANCH  15  17
ATOM     17 C10  MOL A   1      13.572 -18.812  -7.161  1.00  0.00     0.167 C 
BRANCH  17  18
ATOM     18 O11  MOL A   1      14.159 -18.145  -8.277  1.00  0.00    -0.480 OA
BRANCH  18  19
ATOM     19 C12  MOL A   1      14.901 -16.970  -8.132  1.00  0.00     0.166 A 
ATOM     20 C13  MOL A   1      16.269 -16.922  -8.485  1.00  0.00     0.012 A 
ATOM     21 C21  MOL A   1      16.957 -15.700  -8.398  1.00  0.00    -0.054 A 
ATOM     22 C22  MOL A   1      16.312 -14.557  -7.924  1.00  0.00    -0.058 A 
ATOM     23 C23  MOL A   1      14.976 -14.619  -7.529  1.00  0.00    -0.016 A 
ATOM     24 C24  MOL A   1      14.261 -15.827  -7.626  1.00  0.00     0.161 A 
BRANCH  20  25
ATOM     25 C14  MOL A   1      17.015 -18.152  -8.953  1.00  0.00     0.028 C 
BRANCH  25  26
ATOM     26 N15  MOL A   1      18.233 -17.765  -9.695  1.00  0.00    -0.287 NA
ATOM     27 C16  MOL A   1      17.949 -17.538 -11.122  1.00  0.00     0.064 C 
ATOM     28 C17  MOL A   1      18.788 -18.724 -11.553  1.00  0.00     0.272 C 
ATOM     29 F18  MOL A   1      19.921 -18.373 -12.267  1.00  0.00    -0.204 F 
ATOM     30 F19  MOL A   1      18.054 -19.745 -12.133  1.00  0.00    -0.204 F 
ATOM     31 C20  MOL A   1      19.047 -18.933 -10.074  1.00  0.00     0.064 C 
ENDBRANCH  25  26
ENDBRANCH  20  25
BRANCH  24  32
ATOM     32 O25  MOL A   1      12.917 -15.932  -7.238  1.00  0.00    -0.493 OA
ATOM     33 C26  MOL A   1      12.373 -15.355  -6.056  1.00  0.00     0.078 C 
ENDBRANCH  24  32
ENDBRANCH  18  19
ENDBRANCH  17  18
ENDBRANCH  15  17
ENDBRANCH   8  14
ENDBRANCH   1   8
TORSDOF 10
ENDMDL
MODEL 332
REMARK VINA RESULT:    -7.117      5.085      9.744
REMARK INTER + INTRA:         -12.326
REMARK INTER:                 -10.930
REMARK INTRA:                  -1.397
REMARK UNBOUND:                -1.048
REMARK  10 active torsions:
REMARK  status: ('A' for Active; 'I' for Inactive)
REMARK   1   A    between atoms:  C27_1   and   C6_8  
REMARK   2   A    between atoms:  C6_8    and   C5_9  
REMARK   3   A    between atoms:  C5_9    and   C3_12 
REMARK   4   A    between atoms:  C6_8    and   N7_14 
REMARK   5   A    between atoms:  C8_15   and  C10_17 
REMARK   6   A    between atoms: C10_17   and  O11_18 
REMARK   7   A    between atoms: O11_18   and  C12_19 
REMARK   8   A    between atoms: C13_20   and  C14_25 
REMARK   9   A    between atoms: C14_25   and  N15_26 
REMARK   10  A    between atoms: C24_24   and  O25_32 
ROOT
ATOM      1 C27  MOL A   1       5.305 -20.892  -8.017  1.00  0.00    -0.024 A 
ATOM      2 C28  MOL A   1       4.816 -21.161  -6.725  1.00  0.00    -0.057 A 
ATOM      3 C29  MOL A   1       3.608 -21.845  -6.554  1.00  0.00    -0.061 A 
ATOM      4 C30  MOL A   1       2.878 -22.267  -7.669  1.00  0.00    -0.048 A 
ATOM      5 C31  MOL A   1       3.354 -22.009  -8.959  1.00  0.00     0.018 A 
ATOM      6 Br32 MOL A   1       2.365 -22.607 -10.483  1.00  0.00    -0.051 Br
ATOM      7 C33  MOL A   1       4.559 -21.320  -9.133  1.00  0.00    -0.043 A 
ENDROOT
BRANCH   1   8
ATOM      8  C6  MOL A   1       6.575 -20.088  -8.193  1.00  0.00     0.063 C 
BRANCH   8   9
ATOM      9  C5  MOL A   1       6.306 -18.867  -9.091  1.00  0.00     0.051 C 
BRANCH   9  12
ATOM     10  C1  MOL A   1       5.139 -16.047  -6.671  1.00  0.00     0.006 C 
ATOM     11  N2  MOL A   1       5.177 -17.270  -7.460  1.00  0.00    -0.359 N 
ATOM     12  C3  MOL A   1       6.292 -17.592  -8.298  1.00  0.00     0.222 C 
ATOM     13  O4  MOL A   1       7.275 -16.806  -8.373  1.00  0.00    -0.275 OA
ENDBRANCH   9  12
ENDBRANCH   8   9
BRANCH   8  14
ATOM     14  N7  MOL A   1       7.633 -20.927  -8.767  1.00  0.00    -0.346 N 
ATOM     15  C8  MOL A   1       9.021 -20.620  -8.625  1.00  0.00     0.258 C 
ATOM     16  O9  MOL A   1       9.382 -19.589  -7.997  1.00  0.00    -0.271 OA
BRANCH  15  17
ATOM     17 C10  MOL A   1      10.062 -21.526  -9.209  1.00  0.00     0.167 C 
BRANCH  17  18
ATOM     18 O11  MOL A   1      10.700 -22.281  -8.181  1.00  0.00    -0.480 OA
BRANCH  18  19
ATOM     19 C12  MOL A   1      12.076 -22.524  -8.186  1.00  0.00     0.166 A 
ATOM     20 C13  MOL A   1      12.983 -21.605  -7.610  1.00  0.00     0.012 A 
ATOM     21 C21  MOL A   1      14.350 -21.927  -7.566  1.00  0.00    -0.054 A 
ATOM     22 C22  MOL A   1      14.815 -23.117  -8.126  1.00  0.00    -0.058 A 
ATOM     23 C23  MOL A   1      13.925 -23.999  -8.738  1.00  0.00    -0.016 A 
ATOM     24 C24  MOL A   1      12.549 -23.707  -8.777  1.00  0.00     0.161 A 
BRANCH  20  25
ATOM     25 C14  MOL A   1      12.522 -20.281  -7.041  1.00  0.00     0.028 C 
BRANCH  25  26
ATOM     26 N15  MOL A   1      13.394 -19.186  -7.512  1.00  0.00    -0.287 NA
ATOM     27 C16  MOL A   1      12.850 -17.866  -7.149  1.00  0.00     0.064 C 
ATOM     28 C17  MOL A   1      12.605 -17.487  -8.596  1.00  0.00     0.272 C 
ATOM     29 F18  MOL A   1      13.403 -16.447  -9.040  1.00  0.00    -0.204 F 
ATOM     30 F19  MOL A   1      11.265 -17.343  -8.915  1.00  0.00    -0.204 F 
ATOM     31 C20  MOL A   1      13.159 -18.859  -8.929  1.00  0.00     0.064 C 
ENDBRANCH  25  26
ENDBRANCH  20  25
BRANCH  24  32
ATOM     32 O25  MOL A   1      11.621 -24.567  -9.383  1.00  0.00    -0.493 OA
ATOM     33 C26  MOL A   1      11.798 -25.170 -10.661  1.00  0.00     0.078 C 
ENDBRANCH  24  32
ENDBRANCH  18  19
ENDBRANCH  17  18
ENDBRANCH  15  17
ENDBRANCH   8  14
ENDBRANCH   1   8
TORSDOF 10
ENDMDL
MODEL 333
REMARK VINA RESULT:    -7.117      7.159     12.023
REMARK INTER + INTRA:         -12.326
REMARK INTER:                 -10.811
REMARK INTRA:                  -1.516
REMARK UNBOUND:                -1.048
REMARK  10 active torsions:
REMARK  status: ('A' for Active; 'I' for Inactive)
REMARK   1   A    between atoms:  C27_1   and   C6_8  
REMARK   2   A    between atoms:  C6_8    and   C5_9  
REMARK   3   A    between atoms:  C5_9    and   C3_12 
REMARK   4   A    between atoms:  C6_8    and   N7_14 
REMARK   5   A    between atoms:  C8_15   and  C10_17 
REMARK   6   A    between atoms: C10_17   and  O11_18 
REMARK   7   A    between atoms: O11_18   and  C12_19 
REMARK   8   A    between atoms: C13_20   and  C14_25 
REMARK   9   A    between atoms: C14_25   and  N15_26 
REMARK   10  A    between atoms: C24_24   and  O25_32 
ROOT
ATOM      1 C27  MOL A   1       9.856 -18.554  -8.143  1.00  0.00    -0.024 A 
ATOM      2 C28  MOL A   1       9.701 -17.169  -8.335  1.00  0.00    -0.057 A 
ATOM      3 C29  MOL A   1       8.442 -16.631  -8.624  1.00  0.00    -0.061 A 
ATOM      4 C30  MOL A   1       7.328 -17.468  -8.724  1.00  0.00    -0.048 A 
ATOM      5 C31  MOL A   1       7.467 -18.847  -8.531  1.00  0.00     0.018 A 
ATOM      6 Br32 MOL A   1       5.937 -19.990  -8.646  1.00  0.00    -0.051 Br
ATOM      7 C33  MOL A   1       8.725 -19.389  -8.247  1.00  0.00    -0.043 A 
ENDROOT
BRANCH   1   8
ATOM      8  C6  MOL A   1      11.232 -19.136  -7.903  1.00  0.00     0.063 C 
BRANCH   8   9
ATOM      9  C5  MOL A   1      11.145 -20.298  -6.897  1.00  0.00     0.051 C 
BRANCH   9  12
ATOM     10  C1  MOL A   1      12.889 -23.739  -7.436  1.00  0.00     0.006 C 
ATOM     11  N2  MOL A   1      12.481 -22.466  -6.860  1.00  0.00    -0.359 N 
ATOM     12  C3  MOL A   1      11.554 -21.600  -7.522  1.00  0.00     0.222 C 
ATOM     13  O4  MOL A   1      11.069 -21.928  -8.640  1.00  0.00    -0.275 OA
ENDBRANCH   9  12
ENDBRANCH   8   9
BRANCH   8  14
ATOM     14  N7  MOL A   1      12.145 -18.097  -7.414  1.00  0.00    -0.346 N 
ATOM     15  C8  MOL A   1      13.566 -18.227  -7.486  1.00  0.00     0.258 C 
ATOM     16  O9  MOL A   1      14.086 -19.266  -7.973  1.00  0.00    -0.271 OA
BRANCH  15  17
ATOM     17 C10  MOL A   1      14.454 -17.123  -6.996  1.00  0.00     0.167 C 
BRANCH  17  18
ATOM     18 O11  MOL A   1      15.035 -17.470  -5.741  1.00  0.00    -0.480 OA
BRANCH  18  19
ATOM     19 C12  MOL A   1      16.360 -17.156  -5.425  1.00  0.00     0.166 A 
ATOM     20 C13  MOL A   1      17.407 -18.075  -5.666  1.00  0.00     0.012 A 
ATOM     21 C21  MOL A   1      18.732 -17.688  -5.407  1.00  0.00    -0.054 A 
ATOM     22 C22  MOL A   1      19.010 -16.430  -4.873  1.00  0.00    -0.058 A 
ATOM     23 C23  MOL A   1      17.972 -15.543  -4.589  1.00  0.00    -0.016 A 
ATOM     24 C24  MOL A   1      16.638 -15.901  -4.859  1.00  0.00     0.161 A 
BRANCH  20  25
ATOM     25 C14  MOL A   1      17.139 -19.467  -6.194  1.00  0.00     0.028 C 
BRANCH  25  26
ATOM     26 N15  MOL A   1      18.063 -19.785  -7.302  1.00  0.00    -0.287 NA
ATOM     27 C16  MOL A   1      17.491 -19.416  -8.608  1.00  0.00     0.064 C 
ATOM     28 C17  MOL A   1      17.407 -20.860  -9.061  1.00  0.00     0.272 C 
ATOM     29 F18  MOL A   1      18.254 -21.163 -10.113  1.00  0.00    -0.204 F 
ATOM     30 F19  MOL A   1      16.110 -21.315  -9.237  1.00  0.00    -0.204 F 
ATOM     31 C20  MOL A   1      17.985 -21.201  -7.702  1.00  0.00     0.064 C 
ENDBRANCH  25  26
ENDBRANCH  20  25
BRANCH  24  32
ATOM     32 O25  MOL A   1      15.565 -15.039  -4.587  1.00  0.00    -0.493 OA
ATOM     33 C26  MOL A   1      15.238 -14.544  -3.293  1.00  0.00     0.078 C 
ENDBRANCH  24  32
ENDBRANCH  18  19
ENDBRANCH  17  18
ENDBRANCH  15  17
ENDBRANCH   8  14
ENDBRANCH   1   8
TORSDOF 10
ENDMDL
MODEL 334
REMARK VINA RESULT:    -7.114      5.883     10.136
REMARK INTER + INTRA:         -12.320
REMARK INTER:                 -11.264
REMARK INTRA:                  -1.057
REMARK UNBOUND:                -1.048
REMARK  10 active torsions:
REMARK  status: ('A' for Active; 'I' for Inactive)
REMARK   1   A    between atoms:  C27_1   and   C6_8  
REMARK   2   A    between atoms:  C6_8    and   C5_9  
REMARK   3   A    between atoms:  C5_9    and   C3_12 
REMARK   4   A    between atoms:  C6_8    and   N7_14 
REMARK   5   A    between atoms:  C8_15   and  C10_17 
REMARK   6   A    between atoms: C10_17   and  O11_18 
REMARK   7   A    between atoms: O11_18   and  C12_19 
REMARK   8   A    between atoms: C13_20   and  C14_25 
REMARK   9   A    between atoms: C14_25   and  N15_26 
REMARK   10  A    between atoms: C24_24   and  O25_32 
ROOT
ATOM      1 C27  MOL A   1       7.595 -19.102  -9.263  1.00  0.00    -0.024 A 
ATOM      2 C28  MOL A   1       8.478 -18.500  -8.349  1.00  0.00    -0.057 A 
ATOM      3 C29  MOL A   1       8.717 -17.122  -8.398  1.00  0.00    -0.061 A 
ATOM      4 C30  MOL A   1       8.079 -16.334  -9.359  1.00  0.00    -0.048 A 
ATOM      5 C31  MOL A   1       7.196 -16.920 -10.273  1.00  0.00     0.018 A 
ATOM      6 Br32 MOL A   1       6.305 -15.836 -11.574  1.00  0.00    -0.051 Br
ATOM      7 C33  MOL A   1       6.958 -18.297 -10.230  1.00  0.00    -0.043 A 
ENDROOT
BRANCH   1   8
ATOM      8  C6  MOL A   1       7.398 -20.602  -9.250  1.00  0.00     0.063 C 
BRANCH   8   9
ATOM      9  C5  MOL A   1       6.182 -20.967  -8.380  1.00  0.00     0.051 C 
BRANCH   9  12
ATOM     10  C1  MOL A   1       2.564 -21.889  -9.489  1.00  0.00     0.006 C 
ATOM     11  N2  MOL A   1       3.698 -21.433  -8.700  1.00  0.00    -0.359 N 
ATOM     12  C3  MOL A   1       5.034 -21.454  -9.215  1.00  0.00     0.222 C 
ATOM     13  O4  MOL A   1       5.255 -21.883 -10.381  1.00  0.00    -0.275 OA
ENDBRANCH   9  12
ENDBRANCH   8   9
BRANCH   8  14
ATOM     14  N7  MOL A   1       8.607 -21.269  -8.753  1.00  0.00    -0.346 N 
ATOM     15  C8  MOL A   1       9.589 -21.832  -9.626  1.00  0.00     0.258 C 
ATOM     16  O9  MOL A   1       9.434 -21.778 -10.875  1.00  0.00    -0.271 OA
BRANCH  15  17
ATOM     17 C10  MOL A   1      10.819 -22.479  -9.065  1.00  0.00     0.167 C 
BRANCH  17  18
ATOM     18 O11  MOL A   1      11.370 -21.683  -8.019  1.00  0.00    -0.480 OA
BRANCH  18  19
ATOM     19 C12  MOL A   1      12.665 -21.886  -7.535  1.00  0.00     0.166 A 
ATOM     20 C13  MOL A   1      13.636 -20.861  -7.593  1.00  0.00     0.012 A 
ATOM     21 C21  MOL A   1      14.902 -21.082  -7.024  1.00  0.00    -0.054 A 
ATOM     22 C22  MOL A   1      15.214 -22.315  -6.451  1.00  0.00    -0.058 A 
ATOM     23 C23  MOL A   1      14.271 -23.342  -6.440  1.00  0.00    -0.016 A 
ATOM     24 C24  MOL A   1      12.990 -23.137  -6.986  1.00  0.00     0.161 A 
BRANCH  20  25
ATOM     25 C14  MOL A   1      13.351 -19.530  -8.254  1.00  0.00     0.028 C 
BRANCH  25  26
ATOM     26 N15  MOL A   1      12.922 -18.537  -7.248  1.00  0.00    -0.287 NA
ATOM     27 C16  MOL A   1      12.243 -17.390  -7.875  1.00  0.00     0.064 C 
ATOM     28 C17  MOL A   1      13.345 -16.427  -7.477  1.00  0.00     0.272 C 
ATOM     29 F18  MOL A   1      12.946 -15.479  -6.551  1.00  0.00    -0.204 F 
ATOM     30 F19  MOL A   1      14.042 -15.902  -8.553  1.00  0.00    -0.204 F 
ATOM     31 C20  MOL A   1      14.018 -17.634  -6.855  1.00  0.00     0.064 C 
ENDBRANCH  25  26
ENDBRANCH  20  25
BRANCH  24  32
ATOM     32 O25  MOL A   1      12.014 -24.144  -6.996  1.00  0.00    -0.493 OA
ATOM     33 C26  MOL A   1      12.176 -25.430  -6.405  1.00  0.00     0.078 C 
ENDBRANCH  24  32
ENDBRANCH  18  19
ENDBRANCH  17  18
ENDBRANCH  15  17
ENDBRANCH   8  14
ENDBRANCH   1   8
TORSDOF 10
ENDMDL
MODEL 335
REMARK VINA RESULT:    -7.113      5.243     10.109
REMARK INTER + INTRA:         -12.320
REMARK INTER:                 -11.180
REMARK INTRA:                  -1.141
REMARK UNBOUND:                -1.048
REMARK  10 active torsions:
REMARK  status: ('A' for Active; 'I' for Inactive)
REMARK   1   A    between atoms:  C27_1   and   C6_8  
REMARK   2   A    between atoms:  C6_8    and   C5_9  
REMARK   3   A    between atoms:  C5_9    and   C3_12 
REMARK   4   A    between atoms:  C6_8    and   N7_14 
REMARK   5   A    between atoms:  C8_15   and  C10_17 
REMARK   6   A    between atoms: C10_17   and  O11_18 
REMARK   7   A    between atoms: O11_18   and  C12_19 
REMARK   8   A    between atoms: C13_20   and  C14_25 
REMARK   9   A    between atoms: C14_25   and  N15_26 
REMARK   10  A    between atoms: C24_24   and  O25_32 
ROOT
ATOM      1 C27  MOL A   1       8.544 -20.360  -9.438  1.00  0.00    -0.024 A 
ATOM      2 C28  MOL A   1       7.312 -20.291 -10.114  1.00  0.00    -0.057 A 
ATOM      3 C29  MOL A   1       6.726 -21.450 -10.636  1.00  0.00    -0.061 A 
ATOM      4 C30  MOL A   1       7.363 -22.685 -10.490  1.00  0.00    -0.048 A 
ATOM      5 C31  MOL A   1       8.588 -22.767  -9.817  1.00  0.00     0.018 A 
ATOM      6 Br32 MOL A   1       9.448 -24.462  -9.599  1.00  0.00    -0.051 Br
ATOM      7 C33  MOL A   1       9.179 -21.611  -9.299  1.00  0.00    -0.043 A 
ENDROOT
BRANCH   1   8
ATOM      8  C6  MOL A   1       9.206 -19.093  -8.940  1.00  0.00     0.063 C 
BRANCH   8   9
ATOM      9  C5  MOL A   1       8.539 -17.863  -9.581  1.00  0.00     0.051 C 
BRANCH   9  12
ATOM     10  C1  MOL A   1       5.748 -16.452  -7.260  1.00  0.00     0.006 C 
ATOM     11  N2  MOL A   1       6.454 -17.244  -8.256  1.00  0.00    -0.359 N 
ATOM     12  C3  MOL A   1       7.836 -17.021  -8.556  1.00  0.00     0.222 C 
ATOM     13  O4  MOL A   1       8.475 -16.114  -7.956  1.00  0.00    -0.275 OA
ENDBRANCH   9  12
ENDBRANCH   8   9
BRANCH   8  14
ATOM     14  N7  MOL A   1      10.642 -19.118  -9.241  1.00  0.00    -0.346 N 
ATOM     15  C8  MOL A   1      11.614 -18.491  -8.402  1.00  0.00     0.258 C 
ATOM     16  O9  MOL A   1      11.255 -17.876  -7.363  1.00  0.00    -0.271 OA
BRANCH  15  17
ATOM     17 C10  MOL A   1      13.072 -18.569  -8.742  1.00  0.00     0.167 C 
BRANCH  17  18
ATOM     18 O11  MOL A   1      13.840 -18.871  -7.580  1.00  0.00    -0.480 OA
BRANCH  18  19
ATOM     19 C12  MOL A   1      15.237 -18.874  -7.594  1.00  0.00     0.166 A 
ATOM     20 C13  MOL A   1      15.968 -17.694  -7.861  1.00  0.00     0.012 A 
ATOM     21 C21  MOL A   1      17.371 -17.724  -7.787  1.00  0.00    -0.054 A 
ATOM     22 C22  MOL A   1      18.039 -18.915  -7.502  1.00  0.00    -0.058 A 
ATOM     23 C23  MOL A   1      17.317 -20.090  -7.289  1.00  0.00    -0.016 A 
ATOM     24 C24  MOL A   1      15.911 -20.079  -7.338  1.00  0.00     0.161 A 
BRANCH  20  25
ATOM     25 C14  MOL A   1      15.281 -16.396  -8.226  1.00  0.00     0.028 C 
BRANCH  25  26
ATOM     26 N15  MOL A   1      15.406 -15.419  -7.125  1.00  0.00    -0.287 NA
ATOM     27 C16  MOL A   1      14.608 -15.817  -5.953  1.00  0.00     0.064 C 
ATOM     28 C17  MOL A   1      13.673 -14.632  -6.096  1.00  0.00     0.272 C 
ATOM     29 F18  MOL A   1      13.769 -13.721  -5.058  1.00  0.00    -0.204 F 
ATOM     30 F19  MOL A   1      12.372 -14.984  -6.415  1.00  0.00    -0.204 F 
ATOM     31 C20  MOL A   1      14.511 -14.263  -7.304  1.00  0.00     0.064 C 
ENDBRANCH  25  26
ENDBRANCH  20  25
BRANCH  24  32
ATOM     32 O25  MOL A   1      15.149 -21.238  -7.130  1.00  0.00    -0.493 OA
ATOM     33 C26  MOL A   1      15.686 -22.494  -6.727  1.00  0.00     0.078 C 
ENDBRANCH  24  32
ENDBRANCH  18  19
ENDBRANCH  17  18
ENDBRANCH  15  17
ENDBRANCH   8  14
ENDBRANCH   1   8
TORSDOF 10
ENDMDL
MODEL 336
REMARK VINA RESULT:    -7.112      5.448      8.509
REMARK INTER + INTRA:         -12.318
REMARK INTER:                 -11.375
REMARK INTRA:                  -0.943
REMARK UNBOUND:                -1.048
REMARK  10 active torsions:
REMARK  status: ('A' for Active; 'I' for Inactive)
REMARK   1   A    between atoms:  C27_1   and   C6_8  
REMARK   2   A    between atoms:  C6_8    and   C5_9  
REMARK   3   A    between atoms:  C5_9    and   C3_12 
REMARK   4   A    between atoms:  C6_8    and   N7_14 
REMARK   5   A    between atoms:  C8_15   and  C10_17 
REMARK   6   A    between atoms: C10_17   and  O11_18 
REMARK   7   A    between atoms: O11_18   and  C12_19 
REMARK   8   A    between atoms: C13_20   and  C14_25 
REMARK   9   A    between atoms: C14_25   and  N15_26 
REMARK   10  A    between atoms: C24_24   and  O25_32 
ROOT
ATOM      1 C27  MOL A   1      14.674 -18.258  -7.111  1.00  0.00    -0.024 A 
ATOM      2 C28  MOL A   1      14.143 -19.289  -6.314  1.00  0.00    -0.057 A 
ATOM      3 C29  MOL A   1      14.959 -19.971  -5.405  1.00  0.00    -0.061 A 
ATOM      4 C30  MOL A   1      16.309 -19.632  -5.283  1.00  0.00    -0.048 A 
ATOM      5 C31  MOL A   1      16.849 -18.606  -6.067  1.00  0.00     0.018 A 
ATOM      6 Br32 MOL A   1      18.692 -18.128  -5.883  1.00  0.00    -0.051 Br
ATOM      7 C33  MOL A   1      16.037 -17.925  -6.980  1.00  0.00    -0.043 A 
ENDROOT
BRANCH   1   8
ATOM      8  C6  MOL A   1      13.803 -17.574  -8.143  1.00  0.00     0.063 C 
BRANCH   8   9
ATOM      9  C5  MOL A   1      13.801 -16.053  -7.907  1.00  0.00     0.051 C 
BRANCH   9  12
ATOM     10  C1  MOL A   1      13.440 -14.948  -4.189  1.00  0.00     0.006 C 
ATOM     11  N2  MOL A   1      14.008 -15.304  -5.481  1.00  0.00    -0.359 N 
ATOM     12  C3  MOL A   1      13.185 -15.702  -6.583  1.00  0.00     0.222 C 
ATOM     13  O4  MOL A   1      11.932 -15.757  -6.449  1.00  0.00    -0.275 OA
ENDBRANCH   9  12
ENDBRANCH   8   9
BRANCH   8  14
ATOM     14  N7  MOL A   1      12.437 -18.107  -8.088  1.00  0.00    -0.346 N 
ATOM     15  C8  MOL A   1      11.765 -18.620  -9.241  1.00  0.00     0.258 C 
ATOM     16  O9  MOL A   1      12.338 -18.619 -10.363  1.00  0.00    -0.271 OA
BRANCH  15  17
ATOM     17 C10  MOL A   1      10.378 -19.177  -9.124  1.00  0.00     0.167 C 
BRANCH  17  18
ATOM     18 O11  MOL A   1      10.103 -20.062 -10.208  1.00  0.00    -0.480 OA
BRANCH  18  19
ATOM     19 C12  MOL A   1       8.905 -20.774 -10.297  1.00  0.00     0.166 A 
ATOM     20 C13  MOL A   1       7.696 -20.131 -10.649  1.00  0.00     0.012 A 
ATOM     21 C21  MOL A   1       6.530 -20.900 -10.804  1.00  0.00    -0.054 A 
ATOM     22 C22  MOL A   1       6.552 -22.274 -10.568  1.00  0.00    -0.058 A 
ATOM     23 C23  MOL A   1       7.735 -22.899 -10.173  1.00  0.00    -0.016 A 
ATOM     24 C24  MOL A   1       8.920 -22.153 -10.030  1.00  0.00     0.161 A 
BRANCH  20  25
ATOM     25 C14  MOL A   1       7.622 -18.635 -10.860  1.00  0.00     0.028 C 
BRANCH  25  26
ATOM     26 N15  MOL A   1       6.660 -18.027  -9.918  1.00  0.00    -0.287 NA
ATOM     27 C16  MOL A   1       6.939 -16.597  -9.706  1.00  0.00     0.064 C 
ATOM     28 C17  MOL A   1       7.311 -16.810  -8.252  1.00  0.00     0.272 C 
ATOM     29 F18  MOL A   1       6.426 -16.226  -7.361  1.00  0.00    -0.204 F 
ATOM     30 F19  MOL A   1       8.642 -16.549  -7.973  1.00  0.00    -0.204 F 
ATOM     31 C20  MOL A   1       7.026 -18.276  -8.513  1.00  0.00     0.064 C 
ENDBRANCH  25  26
ENDBRANCH  20  25
BRANCH  24  32
ATOM     32 O25  MOL A   1      10.129 -22.743  -9.634  1.00  0.00    -0.493 OA
ATOM     33 C26  MOL A   1      10.302 -24.133  -9.381  1.00  0.00     0.078 C 
ENDBRANCH  24  32
ENDBRANCH  18  19
ENDBRANCH  17  18
ENDBRANCH  15  17
ENDBRANCH   8  14
ENDBRANCH   1   8
TORSDOF 10
ENDMDL
MODEL 337
REMARK VINA RESULT:    -7.109      7.770     12.147
REMARK INTER + INTRA:         -12.314
REMARK INTER:                 -10.499
REMARK INTRA:                  -1.815
REMARK UNBOUND:                -1.048
REMARK  10 active torsions:
REMARK  status: ('A' for Active; 'I' for Inactive)
REMARK   1   A    between atoms:  C27_1   and   C6_8  
REMARK   2   A    between atoms:  C6_8    and   C5_9  
REMARK   3   A    between atoms:  C5_9    and   C3_12 
REMARK   4   A    between atoms:  C6_8    and   N7_14 
REMARK   5   A    between atoms:  C8_15   and  C10_17 
REMARK   6   A    between atoms: C10_17   and  O11_18 
REMARK   7   A    between atoms: O11_18   and  C12_19 
REMARK   8   A    between atoms: C13_20   and  C14_25 
REMARK   9   A    between atoms: C14_25   and  N15_26 
REMARK   10  A    between atoms: C24_24   and  O25_32 
ROOT
ATOM      1 C27  MOL A   1      11.610 -17.796  -8.749  1.00  0.00    -0.024 A 
ATOM      2 C28  MOL A   1      11.730 -18.559  -9.925  1.00  0.00    -0.057 A 
ATOM      3 C29  MOL A   1      10.596 -18.880 -10.679  1.00  0.00    -0.061 A 
ATOM      4 C30  MOL A   1       9.334 -18.443 -10.268  1.00  0.00    -0.048 A 
ATOM      5 C31  MOL A   1       9.201 -17.681  -9.102  1.00  0.00     0.018 A 
ATOM      6 Br32 MOL A   1       7.475 -17.066  -8.552  1.00  0.00    -0.051 Br
ATOM      7 C33  MOL A   1      10.331 -17.363  -8.343  1.00  0.00    -0.043 A 
ENDROOT
BRANCH   1   8
ATOM      8  C6  MOL A   1      12.831 -17.515  -7.901  1.00  0.00     0.063 C 
BRANCH   8   9
ATOM      9  C5  MOL A   1      13.377 -16.109  -8.211  1.00  0.00     0.051 C 
BRANCH   9  12
ATOM     10  C1  MOL A   1      13.023 -14.872  -4.534  1.00  0.00     0.006 C 
ATOM     11  N2  MOL A   1      12.845 -15.625  -5.768  1.00  0.00    -0.359 N 
ATOM     12  C3  MOL A   1      13.575 -15.307  -6.958  1.00  0.00     0.222 C 
ATOM     13  O4  MOL A   1      14.395 -14.348  -6.960  1.00  0.00    -0.275 OA
ENDBRANCH   9  12
ENDBRANCH   8   9
BRANCH   8  14
ATOM     14  N7  MOL A   1      13.860 -18.532  -8.139  1.00  0.00    -0.346 N 
ATOM     15  C8  MOL A   1      14.618 -19.122  -7.080  1.00  0.00     0.258 C 
ATOM     16  O9  MOL A   1      14.424 -18.768  -5.887  1.00  0.00    -0.271 OA
BRANCH  15  17
ATOM     17 C10  MOL A   1      15.640 -20.178  -7.377  1.00  0.00     0.167 C 
BRANCH  17  18
ATOM     18 O11  MOL A   1      16.942 -19.602  -7.461  1.00  0.00    -0.480 OA
BRANCH  18  19
ATOM     19 C12  MOL A   1      17.388 -18.943  -8.610  1.00  0.00     0.166 A 
ATOM     20 C13  MOL A   1      17.406 -17.531  -8.682  1.00  0.00     0.012 A 
ATOM     21 C21  MOL A   1      17.936 -16.910  -9.825  1.00  0.00    -0.054 A 
ATOM     22 C22  MOL A   1      18.396 -17.675 -10.897  1.00  0.00    -0.058 A 
ATOM     23 C23  MOL A   1      18.331 -19.067 -10.844  1.00  0.00    -0.016 A 
ATOM     24 C24  MOL A   1      17.823 -19.712  -9.702  1.00  0.00     0.161 A 
BRANCH  20  25
ATOM     25 C14  MOL A   1      16.867 -16.669  -7.562  1.00  0.00     0.028 C 
BRANCH  25  26
ATOM     26 N15  MOL A   1      17.890 -16.488  -6.513  1.00  0.00    -0.287 NA
ATOM     27 C16  MOL A   1      17.382 -16.878  -5.187  1.00  0.00     0.064 C 
ATOM     28 C17  MOL A   1      17.454 -15.458  -4.660  1.00  0.00     0.272 C 
ATOM     29 F18  MOL A   1      18.396 -15.282  -3.662  1.00  0.00    -0.204 F 
ATOM     30 F19  MOL A   1      16.217 -14.909  -4.367  1.00  0.00    -0.204 F 
ATOM     31 C20  MOL A   1      17.962 -15.094  -6.042  1.00  0.00     0.064 C 
ENDBRANCH  25  26
ENDBRANCH  20  25
BRANCH  24  32
ATOM     32 O25  MOL A   1      17.740 -21.109  -9.609  1.00  0.00    -0.493 OA
ATOM     33 C26  MOL A   1      18.431 -22.016 -10.462  1.00  0.00     0.078 C 
ENDBRANCH  24  32
ENDBRANCH  18  19
ENDBRANCH  17  18
ENDBRANCH  15  17
ENDBRANCH   8  14
ENDBRANCH   1   8
TORSDOF 10
ENDMDL
MODEL 338
REMARK VINA RESULT:    -7.109      5.763      9.506
REMARK INTER + INTRA:         -12.313
REMARK INTER:                 -10.888
REMARK INTRA:                  -1.425
REMARK UNBOUND:                -1.048
REMARK  10 active torsions:
REMARK  status: ('A' for Active; 'I' for Inactive)
REMARK   1   A    between atoms:  C27_1   and   C6_8  
REMARK   2   A    between atoms:  C6_8    and   C5_9  
REMARK   3   A    between atoms:  C5_9    and   C3_12 
REMARK   4   A    between atoms:  C6_8    and   N7_14 
REMARK   5   A    between atoms:  C8_15   and  C10_17 
REMARK   6   A    between atoms: C10_17   and  O11_18 
REMARK   7   A    between atoms: O11_18   and  C12_19 
REMARK   8   A    between atoms: C13_20   and  C14_25 
REMARK   9   A    between atoms: C14_25   and  N15_26 
REMARK   10  A    between atoms: C24_24   and  O25_32 
ROOT
ATOM      1 C27  MOL A   1      15.473 -17.751  -7.678  1.00  0.00    -0.024 A 
ATOM      2 C28  MOL A   1      16.517 -17.162  -8.414  1.00  0.00    -0.057 A 
ATOM      3 C29  MOL A   1      16.725 -15.779  -8.363  1.00  0.00    -0.061 A 
ATOM      4 C30  MOL A   1      15.895 -14.973  -7.580  1.00  0.00    -0.048 A 
ATOM      5 C31  MOL A   1      14.855 -15.547  -6.841  1.00  0.00     0.018 A 
ATOM      6 Br32 MOL A   1      13.732 -14.445  -5.752  1.00  0.00    -0.051 Br
ATOM      7 C33  MOL A   1      14.640 -16.928  -6.893  1.00  0.00    -0.043 A 
ENDROOT
BRANCH   1   8
ATOM      8  C6  MOL A   1      15.209 -19.237  -7.794  1.00  0.00     0.063 C 
BRANCH   8   9
ATOM      9  C5  MOL A   1      15.864 -19.790  -9.073  1.00  0.00     0.051 C 
BRANCH   9  12
ATOM     10  C1  MOL A   1      18.852 -21.605  -7.355  1.00  0.00     0.006 C 
ATOM     11  N2  MOL A   1      17.840 -20.615  -7.693  1.00  0.00    -0.359 N 
ATOM     12  C3  MOL A   1      16.903 -20.826  -8.755  1.00  0.00     0.222 C 
ATOM     13  O4  MOL A   1      16.943 -21.890  -9.431  1.00  0.00    -0.275 OA
ENDBRANCH   9  12
ENDBRANCH   8   9
BRANCH   8  14
ATOM     14  N7  MOL A   1      13.766 -19.498  -7.799  1.00  0.00    -0.346 N 
ATOM     15  C8  MOL A   1      13.198 -20.690  -7.252  1.00  0.00     0.258 C 
ATOM     16  O9  MOL A   1      13.941 -21.574  -6.748  1.00  0.00    -0.271 OA
BRANCH  15  17
ATOM     17 C10  MOL A   1      11.713 -20.895  -7.259  1.00  0.00     0.167 C 
BRANCH  17  18
ATOM     18 O11  MOL A   1      11.223 -20.944  -8.597  1.00  0.00    -0.480 OA
BRANCH  18  19
ATOM     19 C12  MOL A   1      10.028 -21.591  -8.925  1.00  0.00     0.166 A 
ATOM     20 C13  MOL A   1       8.787 -20.918  -8.849  1.00  0.00     0.012 A 
ATOM     21 C21  MOL A   1       7.621 -21.582  -9.264  1.00  0.00    -0.054 A 
ATOM     22 C22  MOL A   1       7.677 -22.906  -9.701  1.00  0.00    -0.058 A 
ATOM     23 C23  MOL A   1       8.896 -23.584  -9.727  1.00  0.00    -0.016 A 
ATOM     24 C24  MOL A   1      10.080 -22.934  -9.335  1.00  0.00     0.161 A 
BRANCH  20  25
ATOM     25 C14  MOL A   1       8.680 -19.501  -8.331  1.00  0.00     0.028 C 
BRANCH  25  26
ATOM     26 N15  MOL A   1       8.647 -18.542  -9.455  1.00  0.00    -0.287 NA
ATOM     27 C16  MOL A   1       9.100 -17.204  -9.039  1.00  0.00     0.064 C 
ATOM     28 C17  MOL A   1       7.731 -16.591  -9.261  1.00  0.00     0.272 C 
ATOM     29 F18  MOL A   1       7.695 -15.676 -10.299  1.00  0.00    -0.204 F 
ATOM     30 F19  MOL A   1       7.124 -16.146  -8.099  1.00  0.00    -0.204 F 
ATOM     31 C20  MOL A   1       7.300 -17.986  -9.670  1.00  0.00     0.064 C 
ENDBRANCH  25  26
ENDBRANCH  20  25
BRANCH  24  32
ATOM     32 O25  MOL A   1      11.325 -23.580  -9.346  1.00  0.00    -0.493 OA
ATOM     33 C26  MOL A   1      11.806 -24.419  -8.301  1.00  0.00     0.078 C 
ENDBRANCH  24  32
ENDBRANCH  18  19
ENDBRANCH  17  18
ENDBRANCH  15  17
ENDBRANCH   8  14
ENDBRANCH   1   8
TORSDOF 10
ENDMDL
MODEL 339
REMARK VINA RESULT:    -7.108      8.821     11.531
REMARK INTER + INTRA:         -12.311
REMARK INTER:                 -10.379
REMARK INTRA:                  -1.932
REMARK UNBOUND:                -1.048
REMARK  10 active torsions:
REMARK  status: ('A' for Active; 'I' for Inactive)
REMARK   1   A    between atoms:  C27_1   and   C6_8  
REMARK   2   A    between atoms:  C6_8    and   C5_9  
REMARK   3   A    between atoms:  C5_9    and   C3_12 
REMARK   4   A    between atoms:  C6_8    and   N7_14 
REMARK   5   A    between atoms:  C8_15   and  C10_17 
REMARK   6   A    between atoms: C10_17   and  O11_18 
REMARK   7   A    between atoms: O11_18   and  C12_19 
REMARK   8   A    between atoms: C13_20   and  C14_25 
REMARK   9   A    between atoms: C14_25   and  N15_26 
REMARK   10  A    between atoms: C24_24   and  O25_32 
ROOT
ATOM      1 C27  MOL A   1      12.642 -19.169  -7.445  1.00  0.00    -0.024 A 
ATOM      2 C28  MOL A   1      12.589 -17.787  -7.704  1.00  0.00    -0.057 A 
ATOM      3 C29  MOL A   1      11.399 -17.194  -8.138  1.00  0.00    -0.061 A 
ATOM      4 C30  MOL A   1      10.252 -17.972  -8.318  1.00  0.00    -0.048 A 
ATOM      5 C31  MOL A   1      10.291 -19.347  -8.061  1.00  0.00     0.018 A 
ATOM      6 Br32 MOL A   1       8.715 -20.409  -8.288  1.00  0.00    -0.051 Br
ATOM      7 C33  MOL A   1      11.480 -19.945  -7.632  1.00  0.00    -0.043 A 
ENDROOT
BRANCH   1   8
ATOM      8  C6  MOL A   1      13.952 -19.814  -7.046  1.00  0.00     0.063 C 
BRANCH   8   9
ATOM      9  C5  MOL A   1      13.704 -21.255  -6.564  1.00  0.00     0.051 C 
BRANCH   9  12
ATOM     10  C1  MOL A   1      15.881 -22.883  -9.354  1.00  0.00     0.006 C 
ATOM     11  N2  MOL A   1      15.331 -21.926  -8.405  1.00  0.00    -0.359 N 
ATOM     12  C3  MOL A   1      14.241 -22.262  -7.540  1.00  0.00     0.222 C 
ATOM     13  O4  MOL A   1      13.725 -23.412  -7.590  1.00  0.00    -0.275 OA
ENDBRANCH   9  12
ENDBRANCH   8   9
BRANCH   8  14
ATOM     14  N7  MOL A   1      14.609 -19.026  -5.998  1.00  0.00    -0.346 N 
ATOM     15  C8  MOL A   1      16.028 -18.872  -5.927  1.00  0.00     0.258 C 
ATOM     16  O9  MOL A   1      16.771 -19.431  -6.777  1.00  0.00    -0.271 OA
BRANCH  15  17
ATOM     17 C10  MOL A   1      16.646 -18.032  -4.850  1.00  0.00     0.167 C 
BRANCH  17  18
ATOM     18 O11  MOL A   1      16.962 -16.734  -5.348  1.00  0.00    -0.480 OA
BRANCH  18  19
ATOM     19 C12  MOL A   1      16.057 -15.992  -6.111  1.00  0.00     0.166 A 
ATOM     20 C13  MOL A   1      14.940 -15.364  -5.513  1.00  0.00     0.012 A 
ATOM     21 C21  MOL A   1      14.100 -14.563  -6.304  1.00  0.00    -0.054 A 
ATOM     22 C22  MOL A   1      14.334 -14.426  -7.672  1.00  0.00    -0.058 A 
ATOM     23 C23  MOL A   1      15.407 -15.087  -8.269  1.00  0.00    -0.016 A 
ATOM     24 C24  MOL A   1      16.274 -15.879  -7.494  1.00  0.00     0.161 A 
BRANCH  20  25
ATOM     25 C14  MOL A   1      14.624 -15.532  -4.043  1.00  0.00     0.028 C 
BRANCH  25  26
ATOM     26 N15  MOL A   1      15.129 -14.379  -3.271  1.00  0.00    -0.287 NA
ATOM     27 C16  MOL A   1      15.830 -14.809  -2.050  1.00  0.00     0.064 C 
ATOM     28 C17  MOL A   1      14.784 -14.191  -1.144  1.00  0.00     0.272 C 
ATOM     29 F18  MOL A   1      15.253 -13.122  -0.401  1.00  0.00    -0.204 F 
ATOM     30 F19  MOL A   1      14.070 -15.119  -0.403  1.00  0.00    -0.204 F 
ATOM     31 C20  MOL A   1      14.085 -13.777  -2.424  1.00  0.00     0.064 C 
ENDBRANCH  25  26
ENDBRANCH  20  25
BRANCH  24  32
ATOM     32 O25  MOL A   1      17.364 -16.561  -8.055  1.00  0.00    -0.493 OA
ATOM     33 C26  MOL A   1      17.386 -17.095  -9.375  1.00  0.00     0.078 C 
ENDBRANCH  24  32
ENDBRANCH  18  19
ENDBRANCH  17  18
ENDBRANCH  15  17
ENDBRANCH   8  14
ENDBRANCH   1   8
TORSDOF 10
ENDMDL
MODEL 340
REMARK VINA RESULT:    -7.106      8.011     12.302
REMARK INTER + INTRA:         -12.309
REMARK INTER:                 -10.923
REMARK INTRA:                  -1.386
REMARK UNBOUND:                -1.048
REMARK  10 active torsions:
REMARK  status: ('A' for Active; 'I' for Inactive)
REMARK   1   A    between atoms:  C27_1   and   C6_8  
REMARK   2   A    between atoms:  C6_8    and   C5_9  
REMARK   3   A    between atoms:  C5_9    and   C3_12 
REMARK   4   A    between atoms:  C6_8    and   N7_14 
REMARK   5   A    between atoms:  C8_15   and  C10_17 
REMARK   6   A    between atoms: C10_17   and  O11_18 
REMARK   7   A    between atoms: O11_18   and  C12_19 
REMARK   8   A    between atoms: C13_20   and  C14_25 
REMARK   9   A    between atoms: C14_25   and  N15_26 
REMARK   10  A    between atoms: C24_24   and  O25_32 
ROOT
ATOM      1 C27  MOL A   1      15.214 -17.313  -1.256  1.00  0.00    -0.024 A 
ATOM      2 C28  MOL A   1      14.677 -16.191  -0.599  1.00  0.00    -0.057 A 
ATOM      3 C29  MOL A   1      13.866 -16.353   0.530  1.00  0.00    -0.061 A 
ATOM      4 C30  MOL A   1      13.583 -17.634   1.013  1.00  0.00    -0.048 A 
ATOM      5 C31  MOL A   1      14.114 -18.758   0.370  1.00  0.00     0.018 A 
ATOM      6 Br32 MOL A   1      13.744 -20.510   1.045  1.00  0.00    -0.051 Br
ATOM      7 C33  MOL A   1      14.921 -18.600  -0.761  1.00  0.00    -0.043 A 
ENDROOT
BRANCH   1   8
ATOM      8  C6  MOL A   1      16.030 -17.133  -2.517  1.00  0.00     0.063 C 
BRANCH   8   9
ATOM      9  C5  MOL A   1      16.232 -15.635  -2.805  1.00  0.00     0.051 C 
BRANCH   9  12
ATOM     10  C1  MOL A   1      19.782 -15.151  -4.333  1.00  0.00     0.006 C 
ATOM     11  N2  MOL A   1      18.374 -15.485  -4.175  1.00  0.00    -0.359 N 
ATOM     12  C3  MOL A   1      17.688 -15.290  -2.934  1.00  0.00     0.222 C 
ATOM     13  O4  MOL A   1      18.304 -14.823  -1.937  1.00  0.00    -0.275 OA
ENDBRANCH   9  12
ENDBRANCH   8   9
BRANCH   8  14
ATOM     14  N7  MOL A   1      15.368 -17.792  -3.649  1.00  0.00    -0.346 N 
ATOM     15  C8  MOL A   1      15.938 -18.913  -4.327  1.00  0.00     0.258 C 
ATOM     16  O9  MOL A   1      17.056 -19.371  -3.969  1.00  0.00    -0.271 OA
BRANCH  15  17
ATOM     17 C10  MOL A   1      15.207 -19.565  -5.461  1.00  0.00     0.167 C 
BRANCH  17  18
ATOM     18 O11  MOL A   1      15.747 -19.144  -6.712  1.00  0.00    -0.480 OA
BRANCH  18  19
ATOM     19 C12  MOL A   1      15.762 -17.801  -7.098  1.00  0.00     0.166 A 
ATOM     20 C13  MOL A   1      14.561 -17.099  -7.350  1.00  0.00     0.012 A 
ATOM     21 C21  MOL A   1      14.619 -15.730  -7.658  1.00  0.00    -0.054 A 
ATOM     22 C22  MOL A   1      15.848 -15.079  -7.762  1.00  0.00    -0.058 A 
ATOM     23 C23  MOL A   1      17.035 -15.785  -7.563  1.00  0.00    -0.016 A 
ATOM     24 C24  MOL A   1      17.001 -17.153  -7.233  1.00  0.00     0.161 A 
BRANCH  20  25
ATOM     25 C14  MOL A   1      13.213 -17.783  -7.298  1.00  0.00     0.028 C 
BRANCH  25  26
ATOM     26 N15  MOL A   1      12.205 -16.993  -8.033  1.00  0.00    -0.287 NA
ATOM     27 C16  MOL A   1      10.968 -16.830  -7.251  1.00  0.00     0.064 C 
ATOM     28 C17  MOL A   1      10.154 -17.657  -8.227  1.00  0.00     0.272 C 
ATOM     29 F18  MOL A   1       9.193 -16.929  -8.906  1.00  0.00    -0.204 F 
ATOM     30 F19  MOL A   1       9.685 -18.847  -7.695  1.00  0.00    -0.204 F 
ATOM     31 C20  MOL A   1      11.451 -17.812  -8.998  1.00  0.00     0.064 C 
ENDBRANCH  25  26
ENDBRANCH  20  25
BRANCH  24  32
ATOM     32 O25  MOL A   1      18.170 -17.898  -7.025  1.00  0.00    -0.493 OA
ATOM     33 C26  MOL A   1      18.640 -18.920  -7.899  1.00  0.00     0.078 C 
ENDBRANCH  24  32
ENDBRANCH  18  19
ENDBRANCH  17  18
ENDBRANCH  15  17
ENDBRANCH   8  14
ENDBRANCH   1   8
TORSDOF 10
ENDMDL
MODEL 341
REMARK VINA RESULT:    -7.103      7.428     11.247
REMARK INTER + INTRA:         -12.304
REMARK INTER:                 -10.972
REMARK INTRA:                  -1.332
REMARK UNBOUND:                -1.048
REMARK  10 active torsions:
REMARK  status: ('A' for Active; 'I' for Inactive)
REMARK   1   A    between atoms:  C27_1   and   C6_8  
REMARK   2   A    between atoms:  C6_8    and   C5_9  
REMARK   3   A    between atoms:  C5_9    and   C3_12 
REMARK   4   A    between atoms:  C6_8    and   N7_14 
REMARK   5   A    between atoms:  C8_15   and  C10_17 
REMARK   6   A    between atoms: C10_17   and  O11_18 
REMARK   7   A    between atoms: O11_18   and  C12_19 
REMARK   8   A    between atoms: C13_20   and  C14_25 
REMARK   9   A    between atoms: C14_25   and  N15_26 
REMARK   10  A    between atoms: C24_24   and  O25_32 
ROOT
ATOM      1 C27  MOL A   1      17.073 -18.765  -4.277  1.00  0.00    -0.024 A 
ATOM      2 C28  MOL A   1      17.514 -17.432  -4.187  1.00  0.00    -0.057 A 
ATOM      3 C29  MOL A   1      17.193 -16.655  -3.069  1.00  0.00    -0.061 A 
ATOM      4 C30  MOL A   1      16.430 -17.199  -2.032  1.00  0.00    -0.048 A 
ATOM      5 C31  MOL A   1      15.988 -18.525  -2.108  1.00  0.00     0.018 A 
ATOM      6 Br32 MOL A   1      14.962 -19.276  -0.678  1.00  0.00    -0.051 Br
ATOM      7 C33  MOL A   1      16.302 -19.303  -3.227  1.00  0.00    -0.043 A 
ENDROOT
BRANCH   1   8
ATOM      8  C6  MOL A   1      17.362 -19.576  -5.522  1.00  0.00     0.063 C 
BRANCH   8   9
ATOM      9  C5  MOL A   1      18.790 -19.287  -6.019  1.00  0.00     0.051 C 
BRANCH   9  12
ATOM     10  C1  MOL A   1      19.652 -20.201  -9.706  1.00  0.00     0.006 C 
ATOM     11  N2  MOL A   1      19.321 -19.449  -8.505  1.00  0.00    -0.359 N 
ATOM     12  C3  MOL A   1      19.121 -20.093  -7.242  1.00  0.00     0.222 C 
ATOM     13  O4  MOL A   1      19.225 -21.346  -7.148  1.00  0.00    -0.275 OA
ENDBRANCH   9  12
ENDBRANCH   8   9
BRANCH   8  14
ATOM     14  N7  MOL A   1      16.380 -19.271  -6.568  1.00  0.00    -0.346 N 
ATOM     15  C8  MOL A   1      15.173 -20.019  -6.732  1.00  0.00     0.258 C 
ATOM     16  O9  MOL A   1      14.920 -20.991  -5.971  1.00  0.00    -0.271 OA
BRANCH  15  17
ATOM     17 C10  MOL A   1      14.190 -19.647  -7.801  1.00  0.00     0.167 C 
BRANCH  17  18
ATOM     18 O11  MOL A   1      14.364 -18.286  -8.187  1.00  0.00    -0.480 OA
BRANCH  18  19
ATOM     19 C12  MOL A   1      13.754 -17.236  -7.496  1.00  0.00     0.166 A 
ATOM     20 C13  MOL A   1      12.351 -17.194  -7.320  1.00  0.00     0.012 A 
ATOM     21 C21  MOL A   1      11.788 -16.161  -6.551  1.00  0.00    -0.054 A 
ATOM     22 C22  MOL A   1      12.595 -15.162  -6.008  1.00  0.00    -0.058 A 
ATOM     23 C23  MOL A   1      13.973 -15.178  -6.225  1.00  0.00    -0.016 A 
ATOM     24 C24  MOL A   1      14.562 -16.213  -6.975  1.00  0.00     0.161 A 
BRANCH  20  25
ATOM     25 C14  MOL A   1      11.439 -18.229  -7.939  1.00  0.00     0.028 C 
BRANCH  25  26
ATOM     26 N15  MOL A   1      10.896 -17.738  -9.222  1.00  0.00    -0.287 NA
ATOM     27 C16  MOL A   1       9.524 -18.222  -9.450  1.00  0.00     0.064 C 
ATOM     28 C17  MOL A   1       9.941 -19.065 -10.639  1.00  0.00     0.272 C 
ATOM     29 F18  MOL A   1       9.420 -18.624 -11.843  1.00  0.00    -0.204 F 
ATOM     30 F19  MOL A   1       9.802 -20.428 -10.433  1.00  0.00    -0.204 F 
ATOM     31 C20  MOL A   1      11.342 -18.554 -10.364  1.00  0.00     0.064 C 
ENDBRANCH  25  26
ENDBRANCH  20  25
BRANCH  24  32
ATOM     32 O25  MOL A   1      15.943 -16.265  -7.217  1.00  0.00    -0.493 OA
ATOM     33 C26  MOL A   1      16.823 -15.151  -7.107  1.00  0.00     0.078 C 
ENDBRANCH  24  32
ENDBRANCH  18  19
ENDBRANCH  17  18
ENDBRANCH  15  17
ENDBRANCH   8  14
ENDBRANCH   1   8
TORSDOF 10
ENDMDL
MODEL 342
REMARK VINA RESULT:    -7.102     10.770     13.621
REMARK INTER + INTRA:         -12.302
REMARK INTER:                 -10.742
REMARK INTRA:                  -1.561
REMARK UNBOUND:                -1.048
REMARK  10 active torsions:
REMARK  status: ('A' for Active; 'I' for Inactive)
REMARK   1   A    between atoms:  C27_1   and   C6_8  
REMARK   2   A    between atoms:  C6_8    and   C5_9  
REMARK   3   A    between atoms:  C5_9    and   C3_12 
REMARK   4   A    between atoms:  C6_8    and   N7_14 
REMARK   5   A    between atoms:  C8_15   and  C10_17 
REMARK   6   A    between atoms: C10_17   and  O11_18 
REMARK   7   A    between atoms: O11_18   and  C12_19 
REMARK   8   A    between atoms: C13_20   and  C14_25 
REMARK   9   A    between atoms: C14_25   and  N15_26 
REMARK   10  A    between atoms: C24_24   and  O25_32 
ROOT
ATOM      1 C27  MOL A   1      15.317 -18.733  -0.909  1.00  0.00    -0.024 A 
ATOM      2 C28  MOL A   1      15.071 -20.079  -1.235  1.00  0.00    -0.057 A 
ATOM      3 C29  MOL A   1      14.581 -20.963  -0.268  1.00  0.00    -0.061 A 
ATOM      4 C30  MOL A   1      14.334 -20.514   1.032  1.00  0.00    -0.048 A 
ATOM      5 C31  MOL A   1      14.572 -19.177   1.369  1.00  0.00     0.018 A 
ATOM      6 Br32 MOL A   1      14.213 -18.557   3.143  1.00  0.00    -0.051 Br
ATOM      7 C33  MOL A   1      15.066 -18.291   0.406  1.00  0.00    -0.043 A 
ENDROOT
BRANCH   1   8
ATOM      8  C6  MOL A   1      15.915 -17.801  -1.941  1.00  0.00     0.063 C 
BRANCH   8   9
ATOM      9  C5  MOL A   1      14.909 -16.691  -2.294  1.00  0.00     0.051 C 
BRANCH   9  12
ATOM     10  C1  MOL A   1      14.912 -13.312  -0.356  1.00  0.00     0.006 C 
ATOM     11  N2  MOL A   1      14.505 -14.602  -0.893  1.00  0.00    -0.359 N 
ATOM     12  C3  MOL A   1      15.353 -15.357  -1.765  1.00  0.00     0.222 C 
ATOM     13  O4  MOL A   1      16.484 -14.907  -2.093  1.00  0.00    -0.275 OA
ENDBRANCH   9  12
ENDBRANCH   8   9
BRANCH   8  14
ATOM     14  N7  MOL A   1      16.298 -18.551  -3.142  1.00  0.00    -0.346 N 
ATOM     15  C8  MOL A   1      17.330 -18.111  -4.027  1.00  0.00     0.258 C 
ATOM     16  O9  MOL A   1      17.946 -17.035  -3.800  1.00  0.00    -0.271 OA
BRANCH  15  17
ATOM     17 C10  MOL A   1      17.700 -18.929  -5.227  1.00  0.00     0.167 C 
BRANCH  17  18
ATOM     18 O11  MOL A   1      18.480 -18.157  -6.137  1.00  0.00    -0.480 OA
BRANCH  18  19
ATOM     19 C12  MOL A   1      18.233 -18.160  -7.513  1.00  0.00     0.166 A 
ATOM     20 C13  MOL A   1      17.358 -17.217  -8.100  1.00  0.00     0.012 A 
ATOM     21 C21  MOL A   1      17.200 -17.206  -9.496  1.00  0.00    -0.054 A 
ATOM     22 C22  MOL A   1      17.860 -18.143 -10.291  1.00  0.00    -0.058 A 
ATOM     23 C23  MOL A   1      18.684 -19.104  -9.704  1.00  0.00    -0.016 A 
ATOM     24 C24  MOL A   1      18.873 -19.122  -8.310  1.00  0.00     0.161 A 
BRANCH  20  25
ATOM     25 C14  MOL A   1      16.584 -16.221  -7.266  1.00  0.00     0.028 C 
BRANCH  25  26
ATOM     26 N15  MOL A   1      15.178 -16.651  -7.120  1.00  0.00    -0.287 NA
ATOM     27 C16  MOL A   1      14.254 -15.713  -7.780  1.00  0.00     0.064 C 
ATOM     28 C17  MOL A   1      13.631 -15.287  -6.466  1.00  0.00     0.272 C 
ATOM     29 F18  MOL A   1      12.307 -15.667  -6.329  1.00  0.00    -0.204 F 
ATOM     30 F19  MOL A   1      13.871 -13.963  -6.138  1.00  0.00    -0.204 F 
ATOM     31 C20  MOL A   1      14.607 -16.253  -5.822  1.00  0.00     0.064 C 
ENDBRANCH  25  26
ENDBRANCH  20  25
BRANCH  24  32
ATOM     32 O25  MOL A   1      19.692 -20.072  -7.681  1.00  0.00    -0.493 OA
ATOM     33 C26  MOL A   1      19.656 -21.470  -7.949  1.00  0.00     0.078 C 
ENDBRANCH  24  32
ENDBRANCH  18  19
ENDBRANCH  17  18
ENDBRANCH  15  17
ENDBRANCH   8  14
ENDBRANCH   1   8
TORSDOF 10
ENDMDL
MODEL 343
REMARK VINA RESULT:    -7.102      5.096      8.502
REMARK INTER + INTRA:         -12.302
REMARK INTER:                 -11.157
REMARK INTRA:                  -1.145
REMARK UNBOUND:                -1.048
REMARK  10 active torsions:
REMARK  status: ('A' for Active; 'I' for Inactive)
REMARK   1   A    between atoms:  C27_1   and   C6_8  
REMARK   2   A    between atoms:  C6_8    and   C5_9  
REMARK   3   A    between atoms:  C5_9    and   C3_12 
REMARK   4   A    between atoms:  C6_8    and   N7_14 
REMARK   5   A    between atoms:  C8_15   and  C10_17 
REMARK   6   A    between atoms: C10_17   and  O11_18 
REMARK   7   A    between atoms: O11_18   and  C12_19 
REMARK   8   A    between atoms: C13_20   and  C14_25 
REMARK   9   A    between atoms: C14_25   and  N15_26 
REMARK   10  A    between atoms: C24_24   and  O25_32 
ROOT
ATOM      1 C27  MOL A   1      14.385 -17.391  -7.521  1.00  0.00    -0.024 A 
ATOM      2 C28  MOL A   1      14.344 -16.207  -8.280  1.00  0.00    -0.057 A 
ATOM      3 C29  MOL A   1      14.501 -14.963  -7.659  1.00  0.00    -0.061 A 
ATOM      4 C30  MOL A   1      14.700 -14.888  -6.278  1.00  0.00    -0.048 A 
ATOM      5 C31  MOL A   1      14.746 -16.058  -5.512  1.00  0.00     0.018 A 
ATOM      6 Br32 MOL A   1      15.040 -15.956  -3.624  1.00  0.00    -0.051 Br
ATOM      7 C33  MOL A   1      14.584 -17.303  -6.128  1.00  0.00    -0.043 A 
ENDROOT
BRANCH   1   8
ATOM      8  C6  MOL A   1      14.142 -18.727  -8.189  1.00  0.00     0.063 C 
BRANCH   8   9
ATOM      9  C5  MOL A   1      15.235 -18.999  -9.238  1.00  0.00     0.051 C 
BRANCH   9  12
ATOM     10  C1  MOL A   1      18.354 -20.736  -7.680  1.00  0.00     0.006 C 
ATOM     11  N2  MOL A   1      17.418 -19.721  -8.144  1.00  0.00    -0.359 N 
ATOM     12  C3  MOL A   1      16.184 -20.068  -8.780  1.00  0.00     0.222 C 
ATOM     13  O4  MOL A   1      15.883 -21.280  -8.958  1.00  0.00    -0.275 OA
ENDBRANCH   9  12
ENDBRANCH   8   9
BRANCH   8  14
ATOM     14  N7  MOL A   1      12.813 -18.751  -8.809  1.00  0.00    -0.346 N 
ATOM     15  C8  MOL A   1      11.847 -19.764  -8.521  1.00  0.00     0.258 C 
ATOM     16  O9  MOL A   1      12.122 -20.691  -7.714  1.00  0.00    -0.271 OA
BRANCH  15  17
ATOM     17 C10  MOL A   1      10.493 -19.726  -9.164  1.00  0.00     0.167 C 
BRANCH  17  18
ATOM     18 O11  MOL A   1       9.607 -20.635  -8.515  1.00  0.00    -0.480 OA
BRANCH  18  19
ATOM     19 C12  MOL A   1       8.425 -21.074  -9.116  1.00  0.00     0.166 A 
ATOM     20 C13  MOL A   1       7.235 -20.315  -9.031  1.00  0.00     0.012 A 
ATOM     21 C21  MOL A   1       6.091 -20.754  -9.716  1.00  0.00    -0.054 A 
ATOM     22 C22  MOL A   1       6.111 -21.950 -10.434  1.00  0.00    -0.058 A 
ATOM     23 C23  MOL A   1       7.271 -22.723 -10.476  1.00  0.00    -0.016 A 
ATOM     24 C24  MOL A   1       8.436 -22.293  -9.814  1.00  0.00     0.161 A 
BRANCH  20  25
ATOM     25 C14  MOL A   1       7.160 -19.041  -8.218  1.00  0.00     0.028 C 
BRANCH  25  26
ATOM     26 N15  MOL A   1       5.975 -18.251  -8.607  1.00  0.00    -0.287 NA
ATOM     27 C16  MOL A   1       6.317 -16.836  -8.832  1.00  0.00     0.064 C 
ATOM     28 C17  MOL A   1       5.493 -16.372  -7.648  1.00  0.00     0.272 C 
ATOM     29 F18  MOL A   1       4.391 -15.612  -8.001  1.00  0.00    -0.204 F 
ATOM     30 F19  MOL A   1       6.248 -15.823  -6.624  1.00  0.00    -0.204 F 
ATOM     31 C20  MOL A   1       5.174 -17.839  -7.440  1.00  0.00     0.064 C 
ENDBRANCH  25  26
ENDBRANCH  20  25
BRANCH  24  32
ATOM     32 O25  MOL A   1       9.622 -23.041  -9.831  1.00  0.00    -0.493 OA
ATOM     33 C26  MOL A   1       9.701 -24.433  -9.542  1.00  0.00     0.078 C 
ENDBRANCH  24  32
ENDBRANCH  18  19
ENDBRANCH  17  18
ENDBRANCH  15  17
ENDBRANCH   8  14
ENDBRANCH   1   8
TORSDOF 10
ENDMDL
MODEL 344
REMARK VINA RESULT:    -7.095      3.856      8.358
REMARK INTER + INTRA:         -12.291
REMARK INTER:                 -12.187
REMARK INTRA:                  -0.104
REMARK UNBOUND:                -1.048
REMARK  10 active torsions:
REMARK  status: ('A' for Active; 'I' for Inactive)
REMARK   1   A    between atoms:  C27_1   and   C6_8  
REMARK   2   A    between atoms:  C6_8    and   C5_9  
REMARK   3   A    between atoms:  C5_9    and   C3_12 
REMARK   4   A    between atoms:  C6_8    and   N7_14 
REMARK   5   A    between atoms:  C8_15   and  C10_17 
REMARK   6   A    between atoms: C10_17   and  O11_18 
REMARK   7   A    between atoms: O11_18   and  C12_19 
REMARK   8   A    between atoms: C13_20   and  C14_25 
REMARK   9   A    between atoms: C14_25   and  N15_26 
REMARK   10  A    between atoms: C24_24   and  O25_32 
ROOT
ATOM      1 C27  MOL A   1       4.810 -15.356  -9.297  1.00  0.00    -0.024 A 
ATOM      2 C28  MOL A   1       5.171 -15.929  -8.063  1.00  0.00    -0.057 A 
ATOM      3 C29  MOL A   1       4.250 -15.981  -7.011  1.00  0.00    -0.061 A 
ATOM      4 C30  MOL A   1       2.963 -15.464  -7.180  1.00  0.00    -0.048 A 
ATOM      5 C31  MOL A   1       2.590 -14.895  -8.403  1.00  0.00     0.018 A 
ATOM      6 Br32 MOL A   1       0.821 -14.207  -8.639  1.00  0.00    -0.051 Br
ATOM      7 C33  MOL A   1       3.510 -14.836  -9.455  1.00  0.00    -0.043 A 
ENDROOT
BRANCH   1   8
ATOM      8  C6  MOL A   1       5.834 -15.238 -10.405  1.00  0.00     0.063 C 
BRANCH   8   9
ATOM      9  C5  MOL A   1       5.129 -15.193 -11.772  1.00  0.00     0.051 C 
BRANCH   9  12
ATOM     10  C1  MOL A   1       3.217 -12.117 -13.205  1.00  0.00     0.006 C 
ATOM     11  N2  MOL A   1       3.559 -13.474 -12.806  1.00  0.00    -0.359 N 
ATOM     12  C3  MOL A   1       4.810 -13.785 -12.182  1.00  0.00     0.222 C 
ATOM     13  O4  MOL A   1       5.654 -12.872 -11.969  1.00  0.00    -0.275 OA
ENDBRANCH   9  12
ENDBRANCH   8   9
BRANCH   8  14
ATOM     14  N7  MOL A   1       6.778 -16.359 -10.347  1.00  0.00    -0.346 N 
ATOM     15  C8  MOL A   1       7.159 -17.105 -11.505  1.00  0.00     0.258 C 
ATOM     16  O9  MOL A   1       6.674 -16.819 -12.632  1.00  0.00    -0.271 OA
BRANCH  15  17
ATOM     17 C10  MOL A   1       8.148 -18.225 -11.394  1.00  0.00     0.167 C 
BRANCH  17  18
ATOM     18 O11  MOL A   1       8.143 -18.767 -10.075  1.00  0.00    -0.480 OA
BRANCH  18  19
ATOM     19 C12  MOL A   1       8.668 -20.030  -9.791  1.00  0.00     0.166 A 
ATOM     20 C13  MOL A   1       7.865 -21.191  -9.873  1.00  0.00     0.012 A 
ATOM     21 C21  MOL A   1       8.454 -22.448  -9.655  1.00  0.00    -0.054 A 
ATOM     22 C22  MOL A   1       9.803 -22.549  -9.314  1.00  0.00    -0.058 A 
ATOM     23 C23  MOL A   1      10.581 -21.398  -9.184  1.00  0.00    -0.016 A 
ATOM     24 C24  MOL A   1      10.018 -20.129  -9.417  1.00  0.00     0.161 A 
BRANCH  20  25
ATOM     25 C14  MOL A   1       6.388 -21.117 -10.188  1.00  0.00     0.028 C 
BRANCH  25  26
ATOM     26 N15  MOL A   1       5.612 -21.913  -9.215  1.00  0.00    -0.287 NA
ATOM     27 C16  MOL A   1       4.189 -21.537  -9.219  1.00  0.00     0.064 C 
ATOM     28 C17  MOL A   1       4.255 -20.987  -7.807  1.00  0.00     0.272 C 
ATOM     29 F18  MOL A   1       3.515 -21.715  -6.892  1.00  0.00    -0.204 F 
ATOM     30 F19  MOL A   1       4.052 -19.618  -7.732  1.00  0.00    -0.204 F 
ATOM     31 C20  MOL A   1       5.720 -21.377  -7.847  1.00  0.00     0.064 C 
ENDBRANCH  25  26
ENDBRANCH  20  25
BRANCH  24  32
ATOM     32 O25  MOL A   1      10.766 -18.949  -9.296  1.00  0.00    -0.493 OA
ATOM     33 C26  MOL A   1      11.758 -18.525 -10.224  1.00  0.00     0.078 C 
ENDBRANCH  24  32
ENDBRANCH  18  19
ENDBRANCH  17  18
ENDBRANCH  15  17
ENDBRANCH   8  14
ENDBRANCH   1   8
TORSDOF 10
ENDMDL
MODEL 345
REMARK VINA RESULT:    -7.095      5.407     10.782
REMARK INTER + INTRA:         -12.291
REMARK INTER:                 -11.371
REMARK INTRA:                  -0.920
REMARK UNBOUND:                -1.048
REMARK  10 active torsions:
REMARK  status: ('A' for Active; 'I' for Inactive)
REMARK   1   A    between atoms:  C27_1   and   C6_8  
REMARK   2   A    between atoms:  C6_8    and   C5_9  
REMARK   3   A    between atoms:  C5_9    and   C3_12 
REMARK   4   A    between atoms:  C6_8    and   N7_14 
REMARK   5   A    between atoms:  C8_15   and  C10_17 
REMARK   6   A    between atoms: C10_17   and  O11_18 
REMARK   7   A    between atoms: O11_18   and  C12_19 
REMARK   8   A    between atoms: C13_20   and  C14_25 
REMARK   9   A    between atoms: C14_25   and  N15_26 
REMARK   10  A    between atoms: C24_24   and  O25_32 
ROOT
ATOM      1 C27  MOL A   1       9.429 -20.687  -8.979  1.00  0.00    -0.024 A 
ATOM      2 C28  MOL A   1      10.115 -21.893  -9.208  1.00  0.00    -0.057 A 
ATOM      3 C29  MOL A   1       9.415 -23.045  -9.583  1.00  0.00    -0.061 A 
ATOM      4 C30  MOL A   1       8.026 -23.005  -9.730  1.00  0.00    -0.048 A 
ATOM      5 C31  MOL A   1       7.332 -21.811  -9.508  1.00  0.00     0.018 A 
ATOM      6 Br32 MOL A   1       5.432 -21.751  -9.731  1.00  0.00    -0.051 Br
ATOM      7 C33  MOL A   1       8.027 -20.658  -9.128  1.00  0.00    -0.043 A 
ENDROOT
BRANCH   1   8
ATOM      8  C6  MOL A   1      10.184 -19.464  -8.504  1.00  0.00     0.063 C 
BRANCH   8   9
ATOM      9  C5  MOL A   1      10.197 -18.391  -9.607  1.00  0.00     0.051 C 
BRANCH   9  12
ATOM     10  C1  MOL A   1       7.000 -16.249 -10.211  1.00  0.00     0.006 C 
ATOM     11  N2  MOL A   1       8.076 -17.213 -10.384  1.00  0.00    -0.359 N 
ATOM     12  C3  MOL A   1       9.106 -17.380  -9.404  1.00  0.00     0.222 C 
ATOM     13  O4  MOL A   1       9.101 -16.677  -8.356  1.00  0.00    -0.275 OA
ENDBRANCH   9  12
ENDBRANCH   8   9
BRANCH   8  14
ATOM     14  N7  MOL A   1      11.553 -19.829  -8.123  1.00  0.00    -0.346 N 
ATOM     15  C8  MOL A   1      12.444 -18.912  -7.484  1.00  0.00     0.258 C 
ATOM     16  O9  MOL A   1      12.072 -17.735  -7.234  1.00  0.00    -0.271 OA
BRANCH  15  17
ATOM     17 C10  MOL A   1      13.825 -19.345  -7.092  1.00  0.00     0.167 C 
BRANCH  17  18
ATOM     18 O11  MOL A   1      14.709 -18.227  -7.067  1.00  0.00    -0.480 OA
BRANCH  18  19
ATOM     19 C12  MOL A   1      16.006 -18.320  -6.555  1.00  0.00     0.166 A 
ATOM     20 C13  MOL A   1      16.306 -17.893  -5.241  1.00  0.00     0.012 A 
ATOM     21 C21  MOL A   1      17.605 -18.078  -4.739  1.00  0.00    -0.054 A 
ATOM     22 C22  MOL A   1      18.602 -18.630  -5.543  1.00  0.00    -0.058 A 
ATOM     23 C23  MOL A   1      18.317 -19.004  -6.857  1.00  0.00    -0.016 A 
ATOM     24 C24  MOL A   1      17.018 -18.847  -7.374  1.00  0.00     0.161 A 
BRANCH  20  25
ATOM     25 C14  MOL A   1      15.264 -17.241  -4.358  1.00  0.00     0.028 C 
BRANCH  25  26
ATOM     26 N15  MOL A   1      15.427 -15.773  -4.367  1.00  0.00    -0.287 NA
ATOM     27 C16  MOL A   1      14.946 -15.167  -3.113  1.00  0.00     0.064 C 
ATOM     28 C17  MOL A   1      13.812 -14.444  -3.812  1.00  0.00     0.272 C 
ATOM     29 F18  MOL A   1      13.945 -13.066  -3.807  1.00  0.00    -0.204 F 
ATOM     30 F19  MOL A   1      12.554 -14.888  -3.439  1.00  0.00    -0.204 F 
ATOM     31 C20  MOL A   1      14.329 -15.097  -5.079  1.00  0.00     0.064 C 
ENDBRANCH  25  26
ENDBRANCH  20  25
BRANCH  24  32
ATOM     32 O25  MOL A   1      16.690 -19.209  -8.689  1.00  0.00    -0.493 OA
ATOM     33 C26  MOL A   1      16.500 -18.285  -9.755  1.00  0.00     0.078 C 
ENDBRANCH  24  32
ENDBRANCH  18  19
ENDBRANCH  17  18
ENDBRANCH  15  17
ENDBRANCH   8  14
ENDBRANCH   1   8
TORSDOF 10
ENDMDL
MODEL 346
REMARK VINA RESULT:    -7.094      3.705      8.211
REMARK INTER + INTRA:         -12.290
REMARK INTER:                 -12.511
REMARK INTRA:                   0.221
REMARK UNBOUND:                -1.048
REMARK  10 active torsions:
REMARK  status: ('A' for Active; 'I' for Inactive)
REMARK   1   A    between atoms:  C27_1   and   C6_8  
REMARK   2   A    between atoms:  C6_8    and   C5_9  
REMARK   3   A    between atoms:  C5_9    and   C3_12 
REMARK   4   A    between atoms:  C6_8    and   N7_14 
REMARK   5   A    between atoms:  C8_15   and  C10_17 
REMARK   6   A    between atoms: C10_17   and  O11_18 
REMARK   7   A    between atoms: O11_18   and  C12_19 
REMARK   8   A    between atoms: C13_20   and  C14_25 
REMARK   9   A    between atoms: C14_25   and  N15_26 
REMARK   10  A    between atoms: C24_24   and  O25_32 
ROOT
ATOM      1 C27  MOL A   1       3.918 -14.729  -9.810  1.00  0.00    -0.024 A 
ATOM      2 C28  MOL A   1       2.589 -14.344 -10.067  1.00  0.00    -0.057 A 
ATOM      3 C29  MOL A   1       1.626 -14.409  -9.055  1.00  0.00    -0.061 A 
ATOM      4 C30  MOL A   1       1.978 -14.857  -7.779  1.00  0.00    -0.048 A 
ATOM      5 C31  MOL A   1       3.297 -15.239  -7.509  1.00  0.00     0.018 A 
ATOM      6 Br32 MOL A   1       3.783 -15.832  -5.756  1.00  0.00    -0.051 Br
ATOM      7 C33  MOL A   1       4.261 -15.181  -8.520  1.00  0.00    -0.043 A 
ENDROOT
BRANCH   1   8
ATOM      8  C6  MOL A   1       4.937 -14.725 -10.929  1.00  0.00     0.063 C 
BRANCH   8   9
ATOM      9  C5  MOL A   1       4.241 -14.983 -12.277  1.00  0.00     0.051 C 
BRANCH   9  12
ATOM     10  C1  MOL A   1       4.632 -11.639 -14.236  1.00  0.00     0.006 C 
ATOM     11  N2  MOL A   1       4.931 -12.884 -13.544  1.00  0.00    -0.359 N 
ATOM     12  C3  MOL A   1       3.900 -13.699 -12.976  1.00  0.00     0.222 C 
ATOM     13  O4  MOL A   1       2.693 -13.342 -13.062  1.00  0.00    -0.275 OA
ENDBRANCH   9  12
ENDBRANCH   8   9
BRANCH   8  14
ATOM     14  N7  MOL A   1       5.970 -15.736 -10.679  1.00  0.00    -0.346 N 
ATOM     15  C8  MOL A   1       6.578 -16.491 -11.729  1.00  0.00     0.258 C 
ATOM     16  O9  MOL A   1       6.227 -16.311 -12.926  1.00  0.00    -0.271 OA
BRANCH  15  17
ATOM     17 C10  MOL A   1       7.648 -17.494 -11.421  1.00  0.00     0.167 C 
BRANCH  17  18
ATOM     18 O11  MOL A   1       7.348 -18.188 -10.212  1.00  0.00    -0.480 OA
BRANCH  18  19
ATOM     19 C12  MOL A   1       8.081 -19.303  -9.796  1.00  0.00     0.166 A 
ATOM     20 C13  MOL A   1       7.507 -20.595  -9.792  1.00  0.00     0.012 A 
ATOM     21 C21  MOL A   1       8.304 -21.698  -9.442  1.00  0.00    -0.054 A 
ATOM     22 C22  MOL A   1       9.631 -21.517  -9.055  1.00  0.00    -0.058 A 
ATOM     23 C23  MOL A   1      10.181 -20.236  -9.010  1.00  0.00    -0.016 A 
ATOM     24 C24  MOL A   1       9.408 -19.118  -9.376  1.00  0.00     0.161 A 
BRANCH  20  25
ATOM     25 C14  MOL A   1       6.056 -20.823 -10.154  1.00  0.00     0.028 C 
BRANCH  25  26
ATOM     26 N15  MOL A   1       5.420 -21.739  -9.185  1.00  0.00    -0.287 NA
ATOM     27 C16  MOL A   1       3.957 -21.571  -9.160  1.00  0.00     0.064 C 
ATOM     28 C17  MOL A   1       3.969 -21.041  -7.740  1.00  0.00     0.272 C 
ATOM     29 F18  MOL A   1       3.357 -21.883  -6.828  1.00  0.00    -0.204 F 
ATOM     30 F19  MOL A   1       3.574 -19.717  -7.636  1.00  0.00    -0.204 F 
ATOM     31 C20  MOL A   1       5.474 -21.216  -7.809  1.00  0.00     0.064 C 
ENDBRANCH  25  26
ENDBRANCH  20  25
BRANCH  24  32
ATOM     32 O25  MOL A   1       9.922 -17.814  -9.345  1.00  0.00    -0.493 OA
ATOM     33 C26  MOL A   1      10.737 -17.294  -8.299  1.00  0.00     0.078 C 
ENDBRANCH  24  32
ENDBRANCH  18  19
ENDBRANCH  17  18
ENDBRANCH  15  17
ENDBRANCH   8  14
ENDBRANCH   1   8
TORSDOF 10
ENDMDL
MODEL 347
REMARK VINA RESULT:    -7.094      5.560      9.589
REMARK INTER + INTRA:         -12.289
REMARK INTER:                 -11.742
REMARK INTRA:                  -0.547
REMARK UNBOUND:                -1.048
REMARK  10 active torsions:
REMARK  status: ('A' for Active; 'I' for Inactive)
REMARK   1   A    between atoms:  C27_1   and   C6_8  
REMARK   2   A    between atoms:  C6_8    and   C5_9  
REMARK   3   A    between atoms:  C5_9    and   C3_12 
REMARK   4   A    between atoms:  C6_8    and   N7_14 
REMARK   5   A    between atoms:  C8_15   and  C10_17 
REMARK   6   A    between atoms: C10_17   and  O11_18 
REMARK   7   A    between atoms: O11_18   and  C12_19 
REMARK   8   A    between atoms: C13_20   and  C14_25 
REMARK   9   A    between atoms: C14_25   and  N15_26 
REMARK   10  A    between atoms: C24_24   and  O25_32 
ROOT
ATOM      1 C27  MOL A   1       5.400 -20.601  -8.567  1.00  0.00    -0.024 A 
ATOM      2 C28  MOL A   1       4.603 -19.957  -7.603  1.00  0.00    -0.057 A 
ATOM      3 C29  MOL A   1       3.238 -20.247  -7.505  1.00  0.00    -0.061 A 
ATOM      4 C30  MOL A   1       2.656 -21.180  -8.367  1.00  0.00    -0.048 A 
ATOM      5 C31  MOL A   1       3.438 -21.830  -9.329  1.00  0.00     0.018 A 
ATOM      6 Br32 MOL A   1       2.644 -23.123 -10.494  1.00  0.00    -0.051 Br
ATOM      7 C33  MOL A   1       4.802 -21.539  -9.433  1.00  0.00    -0.043 A 
ENDROOT
BRANCH   1   8
ATOM      8  C6  MOL A   1       6.859 -20.229  -8.714  1.00  0.00     0.063 C 
BRANCH   8   9
ATOM      9  C5  MOL A   1       7.099 -19.565 -10.082  1.00  0.00     0.051 C 
BRANCH   9  12
ATOM     10  C1  MOL A   1       8.421 -16.282  -8.454  1.00  0.00     0.006 C 
ATOM     11  N2  MOL A   1       7.899 -17.629  -8.632  1.00  0.00    -0.359 N 
ATOM     12  C3  MOL A   1       7.628 -18.168  -9.931  1.00  0.00     0.222 C 
ATOM     13  O4  MOL A   1       7.836 -17.470 -10.961  1.00  0.00    -0.275 OA
ENDBRANCH   9  12
ENDBRANCH   8   9
BRANCH   8  14
ATOM     14  N7  MOL A   1       7.705 -21.418  -8.562  1.00  0.00    -0.346 N 
ATOM     15  C8  MOL A   1       8.370 -22.035  -9.667  1.00  0.00     0.258 C 
ATOM     16  O9  MOL A   1       8.236 -21.569 -10.829  1.00  0.00    -0.271 OA
BRANCH  15  17
ATOM     17 C10  MOL A   1       9.244 -23.234  -9.452  1.00  0.00     0.167 C 
BRANCH  17  18
ATOM     18 O11  MOL A   1      10.619 -22.858  -9.469  1.00  0.00    -0.480 OA
BRANCH  18  19
ATOM     19 C12  MOL A   1      11.522 -23.306  -8.502  1.00  0.00     0.166 A 
ATOM     20 C13  MOL A   1      11.908 -22.478  -7.423  1.00  0.00     0.012 A 
ATOM     21 C21  MOL A   1      12.757 -22.996  -6.430  1.00  0.00    -0.054 A 
ATOM     22 C22  MOL A   1      13.253 -24.296  -6.531  1.00  0.00    -0.058 A 
ATOM     23 C23  MOL A   1      12.911 -25.094  -7.623  1.00  0.00    -0.016 A 
ATOM     24 C24  MOL A   1      12.046 -24.604  -8.619  1.00  0.00     0.161 A 
BRANCH  20  25
ATOM     25 C14  MOL A   1      11.433 -21.046  -7.308  1.00  0.00     0.028 C 
BRANCH  25  26
ATOM     26 N15  MOL A   1      12.063 -20.209  -8.349  1.00  0.00    -0.287 NA
ATOM     27 C16  MOL A   1      12.828 -19.096  -7.760  1.00  0.00     0.064 C 
ATOM     28 C17  MOL A   1      11.892 -18.052  -8.335  1.00  0.00     0.272 C 
ATOM     29 F18  MOL A   1      12.479 -17.248  -9.297  1.00  0.00    -0.204 F 
ATOM     30 F19  MOL A   1      11.182 -17.350  -7.375  1.00  0.00    -0.204 F 
ATOM     31 C20  MOL A   1      11.124 -19.225  -8.914  1.00  0.00     0.064 C 
ENDBRANCH  25  26
ENDBRANCH  20  25
BRANCH  24  32
ATOM     32 O25  MOL A   1      11.679 -25.373  -9.732  1.00  0.00    -0.493 OA
ATOM     33 C26  MOL A   1      12.517 -25.612 -10.858  1.00  0.00     0.078 C 
ENDBRANCH  24  32
ENDBRANCH  18  19
ENDBRANCH  17  18
ENDBRANCH  15  17
ENDBRANCH   8  14
ENDBRANCH   1   8
TORSDOF 10
ENDMDL
MODEL 348
REMARK VINA RESULT:    -7.093      6.531     10.668
REMARK INTER + INTRA:         -12.288
REMARK INTER:                 -10.814
REMARK INTRA:                  -1.474
REMARK UNBOUND:                -1.048
REMARK  10 active torsions:
REMARK  status: ('A' for Active; 'I' for Inactive)
REMARK   1   A    between atoms:  C27_1   and   C6_8  
REMARK   2   A    between atoms:  C6_8    and   C5_9  
REMARK   3   A    between atoms:  C5_9    and   C3_12 
REMARK   4   A    between atoms:  C6_8    and   N7_14 
REMARK   5   A    between atoms:  C8_15   and  C10_17 
REMARK   6   A    between atoms: C10_17   and  O11_18 
REMARK   7   A    between atoms: O11_18   and  C12_19 
REMARK   8   A    between atoms: C13_20   and  C14_25 
REMARK   9   A    between atoms: C14_25   and  N15_26 
REMARK   10  A    between atoms: C24_24   and  O25_32 
ROOT
ATOM      1 C27  MOL A   1       8.116 -19.241  -8.543  1.00  0.00    -0.024 A 
ATOM      2 C28  MOL A   1       7.648 -17.914  -8.556  1.00  0.00    -0.057 A 
ATOM      3 C29  MOL A   1       6.322 -17.628  -8.216  1.00  0.00    -0.061 A 
ATOM      4 C30  MOL A   1       5.450 -18.661  -7.860  1.00  0.00    -0.048 A 
ATOM      5 C31  MOL A   1       5.903 -19.985  -7.840  1.00  0.00     0.018 A 
ATOM      6 Br32 MOL A   1       4.716 -21.396  -7.331  1.00  0.00    -0.051 Br
ATOM      7 C33  MOL A   1       7.227 -20.275  -8.184  1.00  0.00    -0.043 A 
ENDROOT
BRANCH   1   8
ATOM      8  C6  MOL A   1       9.531 -19.550  -8.982  1.00  0.00     0.063 C 
BRANCH   8   9
ATOM      9  C5  MOL A   1       9.946 -20.944  -8.479  1.00  0.00     0.051 C 
BRANCH   9  12
ATOM     10  C1  MOL A   1      10.391 -24.297 -10.412  1.00  0.00     0.006 C 
ATOM     11  N2  MOL A   1      10.391 -23.293  -9.358  1.00  0.00    -0.359 N 
ATOM     12  C3  MOL A   1       9.944 -21.953  -9.591  1.00  0.00     0.222 C 
ATOM     13  O4  MOL A   1       9.541 -21.612 -10.736  1.00  0.00    -0.275 OA
ENDBRANCH   9  12
ENDBRANCH   8   9
BRANCH   8  14
ATOM     14  N7  MOL A   1      10.453 -18.525  -8.482  1.00  0.00    -0.346 N 
ATOM     15  C8  MOL A   1      11.614 -18.115  -9.208  1.00  0.00     0.258 C 
ATOM     16  O9  MOL A   1      11.889 -18.644 -10.317  1.00  0.00    -0.271 OA
BRANCH  15  17
ATOM     17 C10  MOL A   1      12.510 -17.044  -8.663  1.00  0.00     0.167 C 
BRANCH  17  18
ATOM     18 O11  MOL A   1      13.321 -17.559  -7.610  1.00  0.00    -0.480 OA
BRANCH  18  19
ATOM     19 C12  MOL A   1      14.634 -17.125  -7.405  1.00  0.00     0.166 A 
ATOM     20 C13  MOL A   1      15.729 -17.814  -7.975  1.00  0.00     0.012 A 
ATOM     21 C21  MOL A   1      17.025 -17.298  -7.809  1.00  0.00    -0.054 A 
ATOM     22 C22  MOL A   1      17.237 -16.146  -7.052  1.00  0.00    -0.058 A 
ATOM     23 C23  MOL A   1      16.160 -15.496  -6.448  1.00  0.00    -0.016 A 
ATOM     24 C24  MOL A   1      14.851 -15.983  -6.617  1.00  0.00     0.161 A 
BRANCH  20  25
ATOM     25 C14  MOL A   1      15.544 -19.095  -8.758  1.00  0.00     0.028 C 
BRANCH  25  26
ATOM     26 N15  MOL A   1      15.994 -20.256  -7.962  1.00  0.00    -0.287 NA
ATOM     27 C16  MOL A   1      15.728 -21.526  -8.659  1.00  0.00     0.064 C 
ATOM     28 C17  MOL A   1      14.716 -21.969  -7.622  1.00  0.00     0.272 C 
ATOM     29 F18  MOL A   1      15.119 -23.068  -6.885  1.00  0.00    -0.204 F 
ATOM     30 F19  MOL A   1      13.423 -22.064  -8.110  1.00  0.00    -0.204 F 
ATOM     31 C20  MOL A   1      15.006 -20.645  -6.941  1.00  0.00     0.064 C 
ENDBRANCH  25  26
ENDBRANCH  20  25
BRANCH  24  32
ATOM     32 O25  MOL A   1      13.742 -15.360  -6.027  1.00  0.00    -0.493 OA
ATOM     33 C26  MOL A   1      13.811 -14.485  -4.905  1.00  0.00     0.078 C 
ENDBRANCH  24  32
ENDBRANCH  18  19
ENDBRANCH  17  18
ENDBRANCH  15  17
ENDBRANCH   8  14
ENDBRANCH   1   8
TORSDOF 10
ENDMDL
MODEL 349
REMARK VINA RESULT:    -7.090      7.806     11.239
REMARK INTER + INTRA:         -12.284
REMARK INTER:                 -10.444
REMARK INTRA:                  -1.840
REMARK UNBOUND:                -1.048
REMARK  10 active torsions:
REMARK  status: ('A' for Active; 'I' for Inactive)
REMARK   1   A    between atoms:  C27_1   and   C6_8  
REMARK   2   A    between atoms:  C6_8    and   C5_9  
REMARK   3   A    between atoms:  C5_9    and   C3_12 
REMARK   4   A    between atoms:  C6_8    and   N7_14 
REMARK   5   A    between atoms:  C8_15   and  C10_17 
REMARK   6   A    between atoms: C10_17   and  O11_18 
REMARK   7   A    between atoms: O11_18   and  C12_19 
REMARK   8   A    between atoms: C13_20   and  C14_25 
REMARK   9   A    between atoms: C14_25   and  N15_26 
REMARK   10  A    between atoms: C24_24   and  O25_32 
ROOT
ATOM      1 C27  MOL A   1      16.063 -18.737  -3.625  1.00  0.00    -0.024 A 
ATOM      2 C28  MOL A   1      15.386 -19.453  -2.621  1.00  0.00    -0.057 A 
ATOM      3 C29  MOL A   1      15.244 -18.912  -1.339  1.00  0.00    -0.061 A 
ATOM      4 C30  MOL A   1      15.776 -17.653  -1.046  1.00  0.00    -0.048 A 
ATOM      5 C31  MOL A   1      16.448 -16.928  -2.037  1.00  0.00     0.018 A 
ATOM      6 Br32 MOL A   1      17.156 -15.195  -1.641  1.00  0.00    -0.051 Br
ATOM      7 C33  MOL A   1      16.597 -17.468  -3.318  1.00  0.00    -0.043 A 
ENDROOT
BRANCH   1   8
ATOM      8  C6  MOL A   1      16.275 -19.360  -4.987  1.00  0.00     0.063 C 
BRANCH   8   9
ATOM      9  C5  MOL A   1      17.334 -18.564  -5.772  1.00  0.00     0.051 C 
BRANCH   9  12
ATOM     10  C1  MOL A   1      19.359 -21.250  -7.736  1.00  0.00     0.006 C 
ATOM     11  N2  MOL A   1      18.804 -20.446  -6.656  1.00  0.00    -0.359 N 
ATOM     12  C3  MOL A   1      17.897 -19.368  -6.908  1.00  0.00     0.222 C 
ATOM     13  O4  MOL A   1      17.561 -19.087  -8.091  1.00  0.00    -0.275 OA
ENDBRANCH   9  12
ENDBRANCH   8   9
BRANCH   8  14
ATOM     14  N7  MOL A   1      15.010 -19.406  -5.728  1.00  0.00    -0.346 N 
ATOM     15  C8  MOL A   1      14.470 -20.620  -6.254  1.00  0.00     0.258 C 
ATOM     16  O9  MOL A   1      15.087 -21.708  -6.101  1.00  0.00    -0.271 OA
BRANCH  15  17
ATOM     17 C10  MOL A   1      13.159 -20.615  -6.981  1.00  0.00     0.167 C 
BRANCH  17  18
ATOM     18 O11  MOL A   1      13.074 -19.487  -7.849  1.00  0.00    -0.480 OA
BRANCH  18  19
ATOM     19 C12  MOL A   1      11.910 -18.722  -7.959  1.00  0.00     0.166 A 
ATOM     20 C13  MOL A   1      11.870 -17.383  -7.507  1.00  0.00     0.012 A 
ATOM     21 C21  MOL A   1      10.704 -16.626  -7.710  1.00  0.00    -0.054 A 
ATOM     22 C22  MOL A   1       9.581 -17.202  -8.304  1.00  0.00    -0.058 A 
ATOM     23 C23  MOL A   1       9.606 -18.538  -8.703  1.00  0.00    -0.016 A 
ATOM     24 C24  MOL A   1      10.769 -19.310  -8.529  1.00  0.00     0.161 A 
BRANCH  20  25
ATOM     25 C14  MOL A   1      13.050 -16.742  -6.811  1.00  0.00     0.028 C 
BRANCH  25  26
ATOM     26 N15  MOL A   1      13.837 -15.935  -7.766  1.00  0.00    -0.287 NA
ATOM     27 C16  MOL A   1      15.221 -16.425  -7.876  1.00  0.00     0.064 C 
ATOM     28 C17  MOL A   1      15.794 -15.162  -7.263  1.00  0.00     0.272 C 
ATOM     29 F18  MOL A   1      16.551 -14.410  -8.145  1.00  0.00    -0.204 F 
ATOM     30 F19  MOL A   1      16.401 -15.365  -6.034  1.00  0.00    -0.204 F 
ATOM     31 C20  MOL A   1      14.355 -14.699  -7.154  1.00  0.00     0.064 C 
ENDBRANCH  25  26
ENDBRANCH  20  25
BRANCH  24  32
ATOM     32 O25  MOL A   1      10.835 -20.657  -8.915  1.00  0.00    -0.493 OA
ATOM     33 C26  MOL A   1       9.700 -21.484  -9.148  1.00  0.00     0.078 C 
ENDBRANCH  24  32
ENDBRANCH  18  19
ENDBRANCH  17  18
ENDBRANCH  15  17
ENDBRANCH   8  14
ENDBRANCH   1   8
TORSDOF 10
ENDMDL
MODEL 350
REMARK VINA RESULT:    -7.090     11.618     14.360
REMARK INTER + INTRA:         -12.283
REMARK INTER:                 -10.685
REMARK INTRA:                  -1.598
REMARK UNBOUND:                -1.048
REMARK  10 active torsions:
REMARK  status: ('A' for Active; 'I' for Inactive)
REMARK   1   A    between atoms:  C27_1   and   C6_8  
REMARK   2   A    between atoms:  C6_8    and   C5_9  
REMARK   3   A    between atoms:  C5_9    and   C3_12 
REMARK   4   A    between atoms:  C6_8    and   N7_14 
REMARK   5   A    between atoms:  C8_15   and  C10_17 
REMARK   6   A    between atoms: C10_17   and  O11_18 
REMARK   7   A    between atoms: O11_18   and  C12_19 
REMARK   8   A    between atoms: C13_20   and  C14_25 
REMARK   9   A    between atoms: C14_25   and  N15_26 
REMARK   10  A    between atoms: C24_24   and  O25_32 
ROOT
ATOM      1 C27  MOL A   1      15.046 -17.912   0.267  1.00  0.00    -0.024 A 
ATOM      2 C28  MOL A   1      13.721 -17.893   0.737  1.00  0.00    -0.057 A 
ATOM      3 C29  MOL A   1      13.085 -19.082   1.109  1.00  0.00    -0.061 A 
ATOM      4 C30  MOL A   1      13.764 -20.300   1.015  1.00  0.00    -0.048 A 
ATOM      5 C31  MOL A   1      15.084 -20.333   0.552  1.00  0.00     0.018 A 
ATOM      6 Br32 MOL A   1      16.021 -21.998   0.444  1.00  0.00    -0.051 Br
ATOM      7 C33  MOL A   1      15.721 -19.147   0.174  1.00  0.00    -0.043 A 
ENDROOT
BRANCH   1   8
ATOM      8  C6  MOL A   1      15.702 -16.631  -0.202  1.00  0.00     0.063 C 
BRANCH   8   9
ATOM      9  C5  MOL A   1      14.777 -15.433   0.076  1.00  0.00     0.051 C 
BRANCH   9  12
ATOM     10  C1  MOL A   1      16.345 -13.766   3.229  1.00  0.00     0.006 C 
ATOM     11  N2  MOL A   1      15.696 -14.722   2.343  1.00  0.00    -0.359 N 
ATOM     12  C3  MOL A   1      15.439 -14.422   0.967  1.00  0.00     0.222 C 
ATOM     13  O4  MOL A   1      15.772 -13.302   0.491  1.00  0.00    -0.275 OA
ENDBRANCH   9  12
ENDBRANCH   8   9
BRANCH   8  14
ATOM     14  N7  MOL A   1      16.020 -16.717  -1.632  1.00  0.00    -0.346 N 
ATOM     15  C8  MOL A   1      17.062 -15.947  -2.235  1.00  0.00     0.258 C 
ATOM     16  O9  MOL A   1      17.744 -15.147  -1.541  1.00  0.00    -0.271 OA
BRANCH  15  17
ATOM     17 C10  MOL A   1      17.363 -16.092  -3.697  1.00  0.00     0.167 C 
BRANCH  17  18
ATOM     18 O11  MOL A   1      16.220 -16.581  -4.395  1.00  0.00    -0.480 OA
BRANCH  18  19
ATOM     19 C12  MOL A   1      15.721 -15.945  -5.535  1.00  0.00     0.166 A 
ATOM     20 C13  MOL A   1      16.334 -16.118  -6.797  1.00  0.00     0.012 A 
ATOM     21 C21  MOL A   1      15.752 -15.524  -7.929  1.00  0.00    -0.054 A 
ATOM     22 C22  MOL A   1      14.610 -14.733  -7.805  1.00  0.00    -0.058 A 
ATOM     23 C23  MOL A   1      14.035 -14.523  -6.552  1.00  0.00    -0.016 A 
ATOM     24 C24  MOL A   1      14.589 -15.123  -5.406  1.00  0.00     0.161 A 
BRANCH  20  25
ATOM     25 C14  MOL A   1      17.603 -16.925  -6.962  1.00  0.00     0.028 C 
BRANCH  25  26
ATOM     26 N15  MOL A   1      17.311 -18.370  -6.872  1.00  0.00    -0.287 NA
ATOM     27 C16  MOL A   1      18.190 -19.041  -5.900  1.00  0.00     0.064 C 
ATOM     28 C17  MOL A   1      18.878 -19.858  -6.976  1.00  0.00     0.272 C 
ATOM     29 F18  MOL A   1      18.626 -21.217  -6.888  1.00  0.00    -0.204 F 
ATOM     30 F19  MOL A   1      20.217 -19.545  -7.144  1.00  0.00    -0.204 F 
ATOM     31 C20  MOL A   1      17.964 -19.137  -7.947  1.00  0.00     0.064 C 
ENDBRANCH  25  26
ENDBRANCH  20  25
BRANCH  24  32
ATOM     32 O25  MOL A   1      14.042 -14.936  -4.128  1.00  0.00    -0.493 OA
ATOM     33 C26  MOL A   1      14.228 -13.768  -3.336  1.00  0.00     0.078 C 
ENDBRANCH  24  32
ENDBRANCH  18  19
ENDBRANCH  17  18
ENDBRANCH  15  17
ENDBRANCH   8  14
ENDBRANCH   1   8
TORSDOF 10
ENDMDL
MODEL 351
REMARK VINA RESULT:    -7.090      8.819     12.122
REMARK INTER + INTRA:         -12.282
REMARK INTER:                 -10.391
REMARK INTRA:                  -1.891
REMARK UNBOUND:                -1.048
REMARK  10 active torsions:
REMARK  status: ('A' for Active; 'I' for Inactive)
REMARK   1   A    between atoms:  C27_1   and   C6_8  
REMARK   2   A    between atoms:  C6_8    and   C5_9  
REMARK   3   A    between atoms:  C5_9    and   C3_12 
REMARK   4   A    between atoms:  C6_8    and   N7_14 
REMARK   5   A    between atoms:  C8_15   and  C10_17 
REMARK   6   A    between atoms: C10_17   and  O11_18 
REMARK   7   A    between atoms: O11_18   and  C12_19 
REMARK   8   A    between atoms: C13_20   and  C14_25 
REMARK   9   A    between atoms: C14_25   and  N15_26 
REMARK   10  A    between atoms: C24_24   and  O25_32 
ROOT
ATOM      1 C27  MOL A   1      17.894 -17.526 -11.116  1.00  0.00    -0.024 A 
ATOM      2 C28  MOL A   1      18.662 -16.358 -11.276  1.00  0.00    -0.057 A 
ATOM      3 C29  MOL A   1      18.883 -15.826 -12.551  1.00  0.00    -0.061 A 
ATOM      4 C30  MOL A   1      18.341 -16.453 -13.676  1.00  0.00    -0.048 A 
ATOM      5 C31  MOL A   1      17.573 -17.613 -13.531  1.00  0.00     0.018 A 
ATOM      6 Br32 MOL A   1      16.813 -18.459 -15.070  1.00  0.00    -0.051 Br
ATOM      7 C33  MOL A   1      17.354 -18.151 -12.258  1.00  0.00    -0.043 A 
ENDROOT
BRANCH   1   8
ATOM      8  C6  MOL A   1      17.721 -18.136  -9.742  1.00  0.00     0.063 C 
BRANCH   8   9
ATOM      9  C5  MOL A   1      17.022 -19.502  -9.856  1.00  0.00     0.051 C 
BRANCH   9  12
ATOM     10  C1  MOL A   1      17.369 -22.364  -7.236  1.00  0.00     0.006 C 
ATOM     11  N2  MOL A   1      16.805 -21.368  -8.135  1.00  0.00    -0.359 N 
ATOM     12  C3  MOL A   1      17.634 -20.513  -8.930  1.00  0.00     0.222 C 
ATOM     13  O4  MOL A   1      18.890 -20.606  -8.858  1.00  0.00    -0.275 OA
ENDBRANCH   9  12
ENDBRANCH   8   9
BRANCH   8  14
ATOM     14  N7  MOL A   1      16.952 -17.233  -8.878  1.00  0.00    -0.346 N 
ATOM     15  C8  MOL A   1      17.224 -17.086  -7.483  1.00  0.00     0.258 C 
ATOM     16  O9  MOL A   1      18.147 -17.752  -6.942  1.00  0.00    -0.271 OA
BRANCH  15  17
ATOM     17 C10  MOL A   1      16.425 -16.129  -6.651  1.00  0.00     0.167 C 
BRANCH  17  18
ATOM     18 O11  MOL A   1      15.157 -16.692  -6.322  1.00  0.00    -0.480 OA
BRANCH  18  19
ATOM     19 C12  MOL A   1      15.040 -17.903  -5.635  1.00  0.00     0.166 A 
ATOM     20 C13  MOL A   1      14.539 -19.061  -6.274  1.00  0.00     0.012 A 
ATOM     21 C21  MOL A   1      14.513 -20.276  -5.569  1.00  0.00    -0.054 A 
ATOM     22 C22  MOL A   1      14.931 -20.332  -4.239  1.00  0.00    -0.058 A 
ATOM     23 C23  MOL A   1      15.378 -19.178  -3.595  1.00  0.00    -0.016 A 
ATOM     24 C24  MOL A   1      15.432 -17.954  -4.287  1.00  0.00     0.161 A 
BRANCH  20  25
ATOM     25 C14  MOL A   1      14.027 -19.027  -7.697  1.00  0.00     0.028 C 
BRANCH  25  26
ATOM     26 N15  MOL A   1      12.626 -18.559  -7.730  1.00  0.00    -0.287 NA
ATOM     27 C16  MOL A   1      11.788 -19.418  -8.583  1.00  0.00     0.064 C 
ATOM     28 C17  MOL A   1      11.551 -18.310  -9.591  1.00  0.00     0.272 C 
ATOM     29 F18  MOL A   1      10.237 -17.880  -9.644  1.00  0.00    -0.204 F 
ATOM     30 F19  MOL A   1      12.111 -18.558 -10.834  1.00  0.00    -0.204 F 
ATOM     31 C20  MOL A   1      12.430 -17.462  -8.693  1.00  0.00     0.064 C 
ENDBRANCH  25  26
ENDBRANCH  20  25
BRANCH  24  32
ATOM     32 O25  MOL A   1      15.874 -16.771  -3.676  1.00  0.00    -0.493 OA
ATOM     33 C26  MOL A   1      15.428 -16.305  -2.407  1.00  0.00     0.078 C 
ENDBRANCH  24  32
ENDBRANCH  18  19
ENDBRANCH  17  18
ENDBRANCH  15  17
ENDBRANCH   8  14
ENDBRANCH   1   8
TORSDOF 10
ENDMDL
MODEL 352
REMARK VINA RESULT:    -7.088      3.801      7.973
REMARK INTER + INTRA:         -12.280
REMARK INTER:                 -12.193
REMARK INTRA:                  -0.086
REMARK UNBOUND:                -1.048
REMARK  10 active torsions:
REMARK  status: ('A' for Active; 'I' for Inactive)
REMARK   1   A    between atoms:  C27_1   and   C6_8  
REMARK   2   A    between atoms:  C6_8    and   C5_9  
REMARK   3   A    between atoms:  C5_9    and   C3_12 
REMARK   4   A    between atoms:  C6_8    and   N7_14 
REMARK   5   A    between atoms:  C8_15   and  C10_17 
REMARK   6   A    between atoms: C10_17   and  O11_18 
REMARK   7   A    between atoms: O11_18   and  C12_19 
REMARK   8   A    between atoms: C13_20   and  C14_25 
REMARK   9   A    between atoms: C14_25   and  N15_26 
REMARK   10  A    between atoms: C24_24   and  O25_32 
ROOT
ATOM      1 C27  MOL A   1       5.357 -15.649  -9.284  1.00  0.00    -0.024 A 
ATOM      2 C28  MOL A   1       5.943 -16.242  -8.151  1.00  0.00    -0.057 A 
ATOM      3 C29  MOL A   1       5.197 -16.420  -6.981  1.00  0.00    -0.061 A 
ATOM      4 C30  MOL A   1       3.862 -16.008  -6.930  1.00  0.00    -0.048 A 
ATOM      5 C31  MOL A   1       3.267 -15.420  -8.051  1.00  0.00     0.018 A 
ATOM      6 Br32 MOL A   1       1.434 -14.876  -7.988  1.00  0.00    -0.051 Br
ATOM      7 C33  MOL A   1       4.011 -15.235  -9.221  1.00  0.00    -0.043 A 
ENDROOT
BRANCH   1   8
ATOM      8  C6  MOL A   1       6.191 -15.393 -10.521  1.00  0.00     0.063 C 
BRANCH   8   9
ATOM      9  C5  MOL A   1       5.280 -15.282 -11.757  1.00  0.00     0.051 C 
BRANCH   9  12
ATOM     10  C1  MOL A   1       3.166 -12.145 -12.686  1.00  0.00     0.006 C 
ATOM     11  N2  MOL A   1       3.565 -13.519 -12.418  1.00  0.00    -0.359 N 
ATOM     12  C3  MOL A   1       4.903 -13.856 -12.037  1.00  0.00     0.222 C 
ATOM     13  O4  MOL A   1       5.777 -12.953 -11.930  1.00  0.00    -0.275 OA
ENDBRANCH   9  12
ENDBRANCH   8   9
BRANCH   8  14
ATOM     14  N7  MOL A   1       7.176 -16.465 -10.700  1.00  0.00    -0.346 N 
ATOM     15  C8  MOL A   1       7.274 -17.226 -11.906  1.00  0.00     0.258 C 
ATOM     16  O9  MOL A   1       6.493 -16.997 -12.867  1.00  0.00    -0.271 OA
BRANCH  15  17
ATOM     17 C10  MOL A   1       8.317 -18.294 -12.047  1.00  0.00     0.167 C 
BRANCH  17  18
ATOM     18 O11  MOL A   1       7.966 -19.439 -11.274  1.00  0.00    -0.480 OA
BRANCH  18  19
ATOM     19 C12  MOL A   1       8.485 -19.659  -9.996  1.00  0.00     0.166 A 
ATOM     20 C13  MOL A   1       7.633 -19.848  -8.883  1.00  0.00     0.012 A 
ATOM     21 C21  MOL A   1       8.197 -20.145  -7.631  1.00  0.00    -0.054 A 
ATOM     22 C22  MOL A   1       9.582 -20.205  -7.474  1.00  0.00    -0.058 A 
ATOM     23 C23  MOL A   1      10.421 -19.969  -8.563  1.00  0.00    -0.016 A 
ATOM     24 C24  MOL A   1       9.879 -19.689  -9.831  1.00  0.00     0.161 A 
BRANCH  20  25
ATOM     25 C14  MOL A   1       6.129 -19.738  -9.003  1.00  0.00     0.028 C 
BRANCH  25  26
ATOM     26 N15  MOL A   1       5.469 -20.473  -7.906  1.00  0.00    -0.287 NA
ATOM     27 C16  MOL A   1       4.817 -21.701  -8.392  1.00  0.00     0.064 C 
ATOM     28 C17  MOL A   1       3.430 -21.180  -8.072  1.00  0.00     0.272 C 
ATOM     29 F18  MOL A   1       2.795 -21.876  -7.058  1.00  0.00    -0.204 F 
ATOM     30 F19  MOL A   1       2.641 -20.972  -9.191  1.00  0.00    -0.204 F 
ATOM     31 C20  MOL A   1       4.137 -19.927  -7.593  1.00  0.00     0.064 C 
ENDBRANCH  25  26
ENDBRANCH  20  25
BRANCH  24  32
ATOM     32 O25  MOL A   1      10.689 -19.445 -10.950  1.00  0.00    -0.493 OA
ATOM     33 C26  MOL A   1      11.784 -18.535 -10.969  1.00  0.00     0.078 C 
ENDBRANCH  24  32
ENDBRANCH  18  19
ENDBRANCH  17  18
ENDBRANCH  15  17
ENDBRANCH   8  14
ENDBRANCH   1   8
TORSDOF 10
ENDMDL
MODEL 353
REMARK VINA RESULT:    -7.088      4.246      8.282
REMARK INTER + INTRA:         -12.279
REMARK INTER:                 -12.727
REMARK INTRA:                   0.447
REMARK UNBOUND:                -1.048
REMARK  10 active torsions:
REMARK  status: ('A' for Active; 'I' for Inactive)
REMARK   1   A    between atoms:  C27_1   and   C6_8  
REMARK   2   A    between atoms:  C6_8    and   C5_9  
REMARK   3   A    between atoms:  C5_9    and   C3_12 
REMARK   4   A    between atoms:  C6_8    and   N7_14 
REMARK   5   A    between atoms:  C8_15   and  C10_17 
REMARK   6   A    between atoms: C10_17   and  O11_18 
REMARK   7   A    between atoms: O11_18   and  C12_19 
REMARK   8   A    between atoms: C13_20   and  C14_25 
REMARK   9   A    between atoms: C14_25   and  N15_26 
REMARK   10  A    between atoms: C24_24   and  O25_32 
ROOT
ATOM      1 C27  MOL A   1       5.015 -14.685 -11.092  1.00  0.00    -0.024 A 
ATOM      2 C28  MOL A   1       4.107 -14.822 -10.027  1.00  0.00    -0.057 A 
ATOM      3 C29  MOL A   1       3.027 -13.942  -9.901  1.00  0.00    -0.061 A 
ATOM      4 C30  MOL A   1       2.843 -12.919 -10.834  1.00  0.00    -0.048 A 
ATOM      5 C31  MOL A   1       3.737 -12.774 -11.901  1.00  0.00     0.018 A 
ATOM      6 Br32 MOL A   1       3.472 -11.386 -13.191  1.00  0.00    -0.051 Br
ATOM      7 C33  MOL A   1       4.821 -13.648 -12.027  1.00  0.00    -0.043 A 
ENDROOT
BRANCH   1   8
ATOM      8  C6  MOL A   1       6.222 -15.595 -11.181  1.00  0.00     0.063 C 
BRANCH   8   9
ATOM      9  C5  MOL A   1       6.306 -16.223 -12.584  1.00  0.00     0.051 C 
BRANCH   9  12
ATOM     10  C1  MOL A   1       7.581 -19.819 -11.798  1.00  0.00     0.006 C 
ATOM     11  N2  MOL A   1       6.780 -18.603 -11.812  1.00  0.00    -0.359 N 
ATOM     12  C3  MOL A   1       7.160 -17.458 -12.583  1.00  0.00     0.222 C 
ATOM     13  O4  MOL A   1       8.216 -17.482 -13.272  1.00  0.00    -0.275 OA
ENDBRANCH   9  12
ENDBRANCH   8   9
BRANCH   8  14
ATOM     14  N7  MOL A   1       6.149 -16.637 -10.152  1.00  0.00    -0.346 N 
ATOM     15  C8  MOL A   1       7.207 -16.876  -9.222  1.00  0.00     0.258 C 
ATOM     16  O9  MOL A   1       8.261 -16.187  -9.269  1.00  0.00    -0.271 OA
BRANCH  15  17
ATOM     17 C10  MOL A   1       7.070 -17.937  -8.172  1.00  0.00     0.167 C 
BRANCH  17  18
ATOM     18 O11  MOL A   1       8.290 -18.662  -8.033  1.00  0.00    -0.480 OA
BRANCH  18  19
ATOM     19 C12  MOL A   1       8.427 -19.977  -8.483  1.00  0.00     0.166 A 
ATOM     20 C13  MOL A   1       7.323 -20.860  -8.510  1.00  0.00     0.012 A 
ATOM     21 C21  MOL A   1       7.488 -22.148  -9.045  1.00  0.00    -0.054 A 
ATOM     22 C22  MOL A   1       8.737 -22.571  -9.500  1.00  0.00    -0.058 A 
ATOM     23 C23  MOL A   1       9.836 -21.716  -9.427  1.00  0.00    -0.016 A 
ATOM     24 C24  MOL A   1       9.691 -20.413  -8.914  1.00  0.00     0.161 A 
BRANCH  20  25
ATOM     25 C14  MOL A   1       5.967 -20.455  -7.975  1.00  0.00     0.028 C 
BRANCH  25  26
ATOM     26 N15  MOL A   1       5.072 -21.628  -7.898  1.00  0.00    -0.287 NA
ATOM     27 C16  MOL A   1       3.945 -21.512  -8.838  1.00  0.00     0.064 C 
ATOM     28 C17  MOL A   1       2.926 -21.415  -7.720  1.00  0.00     0.272 C 
ATOM     29 F18  MOL A   1       2.070 -22.500  -7.652  1.00  0.00    -0.204 F 
ATOM     30 F19  MOL A   1       2.285 -20.189  -7.655  1.00  0.00    -0.204 F 
ATOM     31 C20  MOL A   1       4.114 -21.524  -6.784  1.00  0.00     0.064 C 
ENDBRANCH  25  26
ENDBRANCH  20  25
BRANCH  24  32
ATOM     32 O25  MOL A   1      10.771 -19.523  -8.822  1.00  0.00    -0.493 OA
ATOM     33 C26  MOL A   1      11.057 -18.504  -9.773  1.00  0.00     0.078 C 
ENDBRANCH  24  32
ENDBRANCH  18  19
ENDBRANCH  17  18
ENDBRANCH  15  17
ENDBRANCH   8  14
ENDBRANCH   1   8
TORSDOF 10
ENDMDL
MODEL 354
REMARK VINA RESULT:    -7.086      6.056     10.376
REMARK INTER + INTRA:         -12.277
REMARK INTER:                 -12.155
REMARK INTRA:                  -0.122
REMARK UNBOUND:                -1.048
REMARK  10 active torsions:
REMARK  status: ('A' for Active; 'I' for Inactive)
REMARK   1   A    between atoms:  C27_1   and   C6_8  
REMARK   2   A    between atoms:  C6_8    and   C5_9  
REMARK   3   A    between atoms:  C5_9    and   C3_12 
REMARK   4   A    between atoms:  C6_8    and   N7_14 
REMARK   5   A    between atoms:  C8_15   and  C10_17 
REMARK   6   A    between atoms: C10_17   and  O11_18 
REMARK   7   A    between atoms: O11_18   and  C12_19 
REMARK   8   A    between atoms: C13_20   and  C14_25 
REMARK   9   A    between atoms: C14_25   and  N15_26 
REMARK   10  A    between atoms: C24_24   and  O25_32 
ROOT
ATOM      1 C27  MOL A   1       6.756 -17.668  -8.657  1.00  0.00    -0.024 A 
ATOM      2 C28  MOL A   1       6.303 -18.994  -8.528  1.00  0.00    -0.057 A 
ATOM      3 C29  MOL A   1       5.187 -19.286  -7.737  1.00  0.00    -0.061 A 
ATOM      4 C30  MOL A   1       4.513 -18.260  -7.068  1.00  0.00    -0.048 A 
ATOM      5 C31  MOL A   1       4.951 -16.937  -7.191  1.00  0.00     0.018 A 
ATOM      6 Br32 MOL A   1       4.015 -15.531  -6.293  1.00  0.00    -0.051 Br
ATOM      7 C33  MOL A   1       6.070 -16.642  -7.976  1.00  0.00    -0.043 A 
ENDROOT
BRANCH   1   8
ATOM      8  C6  MOL A   1       8.007 -17.370  -9.455  1.00  0.00     0.063 C 
BRANCH   8   9
ATOM      9  C5  MOL A   1       7.808 -17.789 -10.923  1.00  0.00     0.051 C 
BRANCH   9  12
ATOM     10  C1  MOL A   1       9.242 -21.408 -10.788  1.00  0.00     0.006 C 
ATOM     11  N2  MOL A   1       9.101 -19.966 -10.648  1.00  0.00    -0.359 N 
ATOM     12  C3  MOL A   1       7.928 -19.276 -11.092  1.00  0.00     0.222 C 
ATOM     13  O4  MOL A   1       6.982 -19.917 -11.626  1.00  0.00    -0.275 OA
ENDBRANCH   9  12
ENDBRANCH   8   9
BRANCH   8  14
ATOM     14  N7  MOL A   1       9.160 -18.063  -8.871  1.00  0.00    -0.346 N 
ATOM     15  C8  MOL A   1      10.039 -17.439  -7.934  1.00  0.00     0.258 C 
ATOM     16  O9  MOL A   1       9.849 -16.244  -7.583  1.00  0.00    -0.271 OA
BRANCH  15  17
ATOM     17 C10  MOL A   1      11.189 -18.203  -7.347  1.00  0.00     0.167 C 
BRANCH  17  18
ATOM     18 O11  MOL A   1      12.412 -17.821  -7.972  1.00  0.00    -0.480 OA
BRANCH  18  19
ATOM     19 C12  MOL A   1      13.641 -17.911  -7.312  1.00  0.00     0.166 A 
ATOM     20 C13  MOL A   1      14.389 -19.111  -7.322  1.00  0.00     0.012 A 
ATOM     21 C21  MOL A   1      15.655 -19.134  -6.713  1.00  0.00    -0.054 A 
ATOM     22 C22  MOL A   1      16.150 -18.002  -6.066  1.00  0.00    -0.058 A 
ATOM     23 C23  MOL A   1      15.388 -16.834  -6.014  1.00  0.00    -0.016 A 
ATOM     24 C24  MOL A   1      14.125 -16.781  -6.634  1.00  0.00     0.161 A 
BRANCH  20  25
ATOM     25 C14  MOL A   1      13.862 -20.373  -7.968  1.00  0.00     0.028 C 
BRANCH  25  26
ATOM     26 N15  MOL A   1      14.052 -21.530  -7.070  1.00  0.00    -0.287 NA
ATOM     27 C16  MOL A   1      14.258 -22.776  -7.827  1.00  0.00     0.064 C 
ATOM     28 C17  MOL A   1      12.954 -23.375  -7.339  1.00  0.00     0.272 C 
ATOM     29 F18  MOL A   1      13.121 -24.473  -6.513  1.00  0.00    -0.204 F 
ATOM     30 F19  MOL A   1      12.017 -23.565  -8.341  1.00  0.00    -0.204 F 
ATOM     31 C20  MOL A   1      12.772 -22.073  -6.584  1.00  0.00     0.064 C 
ENDBRANCH  25  26
ENDBRANCH  20  25
BRANCH  24  32
ATOM     32 O25  MOL A   1      13.329 -15.628  -6.604  1.00  0.00    -0.493 OA
ATOM     33 C26  MOL A   1      13.367 -14.648  -5.572  1.00  0.00     0.078 C 
ENDBRANCH  24  32
ENDBRANCH  18  19
ENDBRANCH  17  18
ENDBRANCH  15  17
ENDBRANCH   8  14
ENDBRANCH   1   8
TORSDOF 10
ENDMDL
MODEL 355
REMARK VINA RESULT:    -7.084      7.106     11.278
REMARK INTER + INTRA:         -12.273
REMARK INTER:                 -10.635
REMARK INTRA:                  -1.638
REMARK UNBOUND:                -1.048
REMARK  10 active torsions:
REMARK  status: ('A' for Active; 'I' for Inactive)
REMARK   1   A    between atoms:  C27_1   and   C6_8  
REMARK   2   A    between atoms:  C6_8    and   C5_9  
REMARK   3   A    between atoms:  C5_9    and   C3_12 
REMARK   4   A    between atoms:  C6_8    and   N7_14 
REMARK   5   A    between atoms:  C8_15   and  C10_17 
REMARK   6   A    between atoms: C10_17   and  O11_18 
REMARK   7   A    between atoms: O11_18   and  C12_19 
REMARK   8   A    between atoms: C13_20   and  C14_25 
REMARK   9   A    between atoms: C14_25   and  N15_26 
REMARK   10  A    between atoms: C24_24   and  O25_32 
ROOT
ATOM      1 C27  MOL A   1       9.478 -20.680  -8.681  1.00  0.00    -0.024 A 
ATOM      2 C28  MOL A   1       9.672 -21.827  -9.471  1.00  0.00    -0.057 A 
ATOM      3 C29  MOL A   1       8.592 -22.658  -9.789  1.00  0.00    -0.061 A 
ATOM      4 C30  MOL A   1       7.311 -22.354  -9.321  1.00  0.00    -0.048 A 
ATOM      5 C31  MOL A   1       7.104 -21.214  -8.536  1.00  0.00     0.018 A 
ATOM      6 Br32 MOL A   1       5.346 -20.786  -7.914  1.00  0.00    -0.051 Br
ATOM      7 C33  MOL A   1       8.181 -20.383  -8.212  1.00  0.00    -0.043 A 
ENDROOT
BRANCH   1   8
ATOM      8  C6  MOL A   1      10.662 -19.826  -8.281  1.00  0.00     0.063 C 
BRANCH   8   9
ATOM      9  C5  MOL A   1      10.620 -18.482  -9.031  1.00  0.00     0.051 C 
BRANCH   9  12
ATOM     10  C1  MOL A   1      11.958 -15.859  -6.481  1.00  0.00     0.006 C 
ATOM     11  N2  MOL A   1      11.880 -16.985  -7.400  1.00  0.00    -0.359 N 
ATOM     12  C3  MOL A   1      10.666 -17.320  -8.081  1.00  0.00     0.222 C 
ATOM     13  O4  MOL A   1       9.623 -16.637  -7.888  1.00  0.00    -0.275 OA
ENDBRANCH   9  12
ENDBRANCH   8   9
BRANCH   8  14
ATOM     14  N7  MOL A   1      11.916 -20.534  -8.561  1.00  0.00    -0.346 N 
ATOM     15  C8  MOL A   1      12.986 -20.605  -7.616  1.00  0.00     0.258 C 
ATOM     16  O9  MOL A   1      12.882 -20.040  -6.495  1.00  0.00    -0.271 OA
BRANCH  15  17
ATOM     17 C10  MOL A   1      14.237 -21.365  -7.944  1.00  0.00     0.167 C 
BRANCH  17  18
ATOM     18 O11  MOL A   1      15.218 -20.493  -8.500  1.00  0.00    -0.480 OA
BRANCH  18  19
ATOM     19 C12  MOL A   1      16.517 -20.418  -7.990  1.00  0.00     0.166 A 
ATOM     20 C13  MOL A   1      16.897 -19.381  -7.107  1.00  0.00     0.012 A 
ATOM     21 C21  MOL A   1      18.189 -19.388  -6.557  1.00  0.00    -0.054 A 
ATOM     22 C22  MOL A   1      19.105 -20.378  -6.913  1.00  0.00    -0.058 A 
ATOM     23 C23  MOL A   1      18.744 -21.372  -7.824  1.00  0.00    -0.016 A 
ATOM     24 C24  MOL A   1      17.449 -21.397  -8.373  1.00  0.00     0.161 A 
BRANCH  20  25
ATOM     25 C14  MOL A   1      15.949 -18.261  -6.739  1.00  0.00     0.028 C 
BRANCH  25  26
ATOM     26 N15  MOL A   1      16.637 -16.956  -6.817  1.00  0.00    -0.287 NA
ATOM     27 C16  MOL A   1      15.739 -15.847  -6.452  1.00  0.00     0.064 C 
ATOM     28 C17  MOL A   1      15.766 -15.268  -7.853  1.00  0.00     0.272 C 
ATOM     29 F18  MOL A   1      16.390 -14.035  -7.932  1.00  0.00    -0.204 F 
ATOM     30 F19  MOL A   1      14.543 -15.320  -8.502  1.00  0.00    -0.204 F 
ATOM     31 C20  MOL A   1      16.678 -16.430  -8.193  1.00  0.00     0.064 C 
ENDBRANCH  25  26
ENDBRANCH  20  25
BRANCH  24  32
ATOM     32 O25  MOL A   1      17.047 -22.377  -9.291  1.00  0.00    -0.493 OA
ATOM     33 C26  MOL A   1      17.919 -23.337  -9.878  1.00  0.00     0.078 C 
ENDBRANCH  24  32
ENDBRANCH  18  19
ENDBRANCH  17  18
ENDBRANCH  15  17
ENDBRANCH   8  14
ENDBRANCH   1   8
TORSDOF 10
ENDMDL
MODEL 356
REMARK VINA RESULT:    -7.083      7.226     11.782
REMARK INTER + INTRA:         -12.272
REMARK INTER:                 -10.167
REMARK INTRA:                  -2.105
REMARK UNBOUND:                -1.048
REMARK  10 active torsions:
REMARK  status: ('A' for Active; 'I' for Inactive)
REMARK   1   A    between atoms:  C27_1   and   C6_8  
REMARK   2   A    between atoms:  C6_8    and   C5_9  
REMARK   3   A    between atoms:  C5_9    and   C3_12 
REMARK   4   A    between atoms:  C6_8    and   N7_14 
REMARK   5   A    between atoms:  C8_15   and  C10_17 
REMARK   6   A    between atoms: C10_17   and  O11_18 
REMARK   7   A    between atoms: O11_18   and  C12_19 
REMARK   8   A    between atoms: C13_20   and  C14_25 
REMARK   9   A    between atoms: C14_25   and  N15_26 
REMARK   10  A    between atoms: C24_24   and  O25_32 
ROOT
ATOM      1 C27  MOL A   1      13.074 -20.319  -8.061  1.00  0.00    -0.024 A 
ATOM      2 C28  MOL A   1      12.144 -21.341  -7.798  1.00  0.00    -0.057 A 
ATOM      3 C29  MOL A   1      12.555 -22.678  -7.758  1.00  0.00    -0.061 A 
ATOM      4 C30  MOL A   1      13.895 -23.007  -7.980  1.00  0.00    -0.048 A 
ATOM      5 C31  MOL A   1      14.831 -22.000  -8.239  1.00  0.00     0.018 A 
ATOM      6 Br32 MOL A   1      16.669 -22.449  -8.521  1.00  0.00    -0.051 Br
ATOM      7 C33  MOL A   1      14.423 -20.663  -8.285  1.00  0.00    -0.043 A 
ENDROOT
BRANCH   1   8
ATOM      8  C6  MOL A   1      12.610 -18.883  -8.174  1.00  0.00     0.063 C 
BRANCH   8   9
ATOM      9  C5  MOL A   1      12.546 -18.465  -9.654  1.00  0.00     0.051 C 
BRANCH   9  12
ATOM     10  C1  MOL A   1       8.667 -18.141  -9.804  1.00  0.00     0.006 C 
ATOM     11  N2  MOL A   1      10.042 -18.134  -9.326  1.00  0.00    -0.359 N 
ATOM     12  C3  MOL A   1      11.138 -18.492 -10.174  1.00  0.00     0.222 C 
ATOM     13  O4  MOL A   1      10.927 -18.832 -11.370  1.00  0.00    -0.275 OA
ENDBRANCH   9  12
ENDBRANCH   8   9
BRANCH   8  14
ATOM     14  N7  MOL A   1      13.508 -17.997  -7.425  1.00  0.00    -0.346 N 
ATOM     15  C8  MOL A   1      13.072 -16.759  -6.861  1.00  0.00     0.258 C 
ATOM     16  O9  MOL A   1      11.879 -16.380  -7.005  1.00  0.00    -0.271 OA
BRANCH  15  17
ATOM     17 C10  MOL A   1      14.026 -15.903  -6.082  1.00  0.00     0.167 C 
BRANCH  17  18
ATOM     18 O11  MOL A   1      14.618 -16.653  -5.024  1.00  0.00    -0.480 OA
BRANCH  18  19
ATOM     19 C12  MOL A   1      15.890 -16.356  -4.527  1.00  0.00     0.166 A 
ATOM     20 C13  MOL A   1      17.054 -16.883  -5.133  1.00  0.00     0.012 A 
ATOM     21 C21  MOL A   1      18.314 -16.495  -4.649  1.00  0.00    -0.054 A 
ATOM     22 C22  MOL A   1      18.419 -15.638  -3.554  1.00  0.00    -0.058 A 
ATOM     23 C23  MOL A   1      17.269 -15.159  -2.926  1.00  0.00    -0.016 A 
ATOM     24 C24  MOL A   1      15.995 -15.518  -3.405  1.00  0.00     0.161 A 
BRANCH  20  25
ATOM     25 C14  MOL A   1      16.979 -17.857  -6.288  1.00  0.00     0.028 C 
BRANCH  25  26
ATOM     26 N15  MOL A   1      17.763 -17.356  -7.436  1.00  0.00    -0.287 NA
ATOM     27 C16  MOL A   1      16.937 -16.538  -8.341  1.00  0.00     0.064 C 
ATOM     28 C17  MOL A   1      17.051 -17.542  -9.471  1.00  0.00     0.272 C 
ATOM     29 F18  MOL A   1      17.766 -17.075 -10.559  1.00  0.00    -0.204 F 
ATOM     30 F19  MOL A   1      15.848 -18.144  -9.805  1.00  0.00    -0.204 F 
ATOM     31 C20  MOL A   1      17.885 -18.361  -8.506  1.00  0.00     0.064 C 
ENDBRANCH  25  26
ENDBRANCH  20  25
BRANCH  24  32
ATOM     32 O25  MOL A   1      14.815 -15.059  -2.802  1.00  0.00    -0.493 OA
ATOM     33 C26  MOL A   1      14.426 -13.691  -2.732  1.00  0.00     0.078 C 
ENDBRANCH  24  32
ENDBRANCH  18  19
ENDBRANCH  17  18
ENDBRANCH  15  17
ENDBRANCH   8  14
ENDBRANCH   1   8
TORSDOF 10
ENDMDL
MODEL 357
REMARK VINA RESULT:    -7.080      6.236      9.319
REMARK INTER + INTRA:         -12.267
REMARK INTER:                 -12.770
REMARK INTRA:                   0.504
REMARK UNBOUND:                -1.048
REMARK  10 active torsions:
REMARK  status: ('A' for Active; 'I' for Inactive)
REMARK   1   A    between atoms:  C27_1   and   C6_8  
REMARK   2   A    between atoms:  C6_8    and   C5_9  
REMARK   3   A    between atoms:  C5_9    and   C3_12 
REMARK   4   A    between atoms:  C6_8    and   N7_14 
REMARK   5   A    between atoms:  C8_15   and  C10_17 
REMARK   6   A    between atoms: C10_17   and  O11_18 
REMARK   7   A    between atoms: O11_18   and  C12_19 
REMARK   8   A    between atoms: C13_20   and  C14_25 
REMARK   9   A    between atoms: C14_25   and  N15_26 
REMARK   10  A    between atoms: C24_24   and  O25_32 
ROOT
ATOM      1 C27  MOL A   1      -0.519 -20.698  -8.298  1.00  0.00    -0.024 A 
ATOM      2 C28  MOL A   1      -0.555 -19.541  -7.499  1.00  0.00    -0.057 A 
ATOM      3 C29  MOL A   1      -1.761 -18.863  -7.289  1.00  0.00    -0.061 A 
ATOM      4 C30  MOL A   1      -2.941 -19.333  -7.874  1.00  0.00    -0.048 A 
ATOM      5 C31  MOL A   1      -2.919 -20.485  -8.668  1.00  0.00     0.018 A 
ATOM      6 Br32 MOL A   1      -4.538 -21.140  -9.449  1.00  0.00    -0.051 Br
ATOM      7 C33  MOL A   1      -1.715 -21.162  -8.884  1.00  0.00    -0.043 A 
ENDROOT
BRANCH   1   8
ATOM      8  C6  MOL A   1       0.800 -21.383  -8.579  1.00  0.00     0.063 C 
BRANCH   8   9
ATOM      9  C5  MOL A   1       0.730 -22.860  -8.151  1.00  0.00     0.051 C 
BRANCH   9  12
ATOM     10  C1  MOL A   1      -0.787 -24.211 -11.475  1.00  0.00     0.006 C 
ATOM     11  N2  MOL A   1      -0.011 -23.433 -10.519  1.00  0.00    -0.359 N 
ATOM     12  C3  MOL A   1      -0.090 -23.673  -9.110  1.00  0.00     0.222 C 
ATOM     13  O4  MOL A   1      -0.851 -24.576  -8.664  1.00  0.00    -0.275 OA
ENDBRANCH   9  12
ENDBRANCH   8   9
BRANCH   8  14
ATOM     14  N7  MOL A   1       1.890 -20.694  -7.880  1.00  0.00    -0.346 N 
ATOM     15  C8  MOL A   1       3.258 -21.086  -8.012  1.00  0.00     0.258 C 
ATOM     16  O9  MOL A   1       3.571 -22.064  -8.742  1.00  0.00    -0.271 OA
BRANCH  15  17
ATOM     17 C10  MOL A   1       4.336 -20.330  -7.294  1.00  0.00     0.167 C 
BRANCH  17  18
ATOM     18 O11  MOL A   1       4.295 -18.949  -7.645  1.00  0.00    -0.480 OA
BRANCH  18  19
ATOM     19 C12  MOL A   1       5.457 -18.198  -7.839  1.00  0.00     0.166 A 
ATOM     20 C13  MOL A   1       6.519 -18.687  -8.633  1.00  0.00     0.012 A 
ATOM     21 C21  MOL A   1       7.635 -17.866  -8.866  1.00  0.00    -0.054 A 
ATOM     22 C22  MOL A   1       7.718 -16.602  -8.282  1.00  0.00    -0.058 A 
ATOM     23 C23  MOL A   1       6.692 -16.142  -7.457  1.00  0.00    -0.016 A 
ATOM     24 C24  MOL A   1       5.555 -16.938  -7.226  1.00  0.00     0.161 A 
BRANCH  20  25
ATOM     25 C14  MOL A   1       6.488 -20.073  -9.240  1.00  0.00     0.028 C 
BRANCH  25  26
ATOM     26 N15  MOL A   1       7.857 -20.615  -9.359  1.00  0.00    -0.287 NA
ATOM     27 C16  MOL A   1       8.335 -20.578 -10.751  1.00  0.00     0.064 C 
ATOM     28 C17  MOL A   1       8.373 -22.090 -10.855  1.00  0.00     0.272 C 
ATOM     29 F18  MOL A   1       9.651 -22.605 -10.988  1.00  0.00    -0.204 F 
ATOM     30 F19  MOL A   1       7.461 -22.610 -11.759  1.00  0.00    -0.204 F 
ATOM     31 C20  MOL A   1       7.869 -22.086  -9.425  1.00  0.00     0.064 C 
ENDBRANCH  25  26
ENDBRANCH  20  25
BRANCH  24  32
ATOM     32 O25  MOL A   1       4.502 -16.513  -6.403  1.00  0.00    -0.493 OA
ATOM     33 C26  MOL A   1       3.566 -15.499  -6.752  1.00  0.00     0.078 C 
ENDBRANCH  24  32
ENDBRANCH  18  19
ENDBRANCH  17  18
ENDBRANCH  15  17
ENDBRANCH   8  14
ENDBRANCH   1   8
TORSDOF 10
ENDMDL
MODEL 358
REMARK VINA RESULT:    -7.076      5.732      8.742
REMARK INTER + INTRA:         -12.261
REMARK INTER:                 -10.866
REMARK INTRA:                  -1.395
REMARK UNBOUND:                -1.048
REMARK  10 active torsions:
REMARK  status: ('A' for Active; 'I' for Inactive)
REMARK   1   A    between atoms:  C27_1   and   C6_8  
REMARK   2   A    between atoms:  C6_8    and   C5_9  
REMARK   3   A    between atoms:  C5_9    and   C3_12 
REMARK   4   A    between atoms:  C6_8    and   N7_14 
REMARK   5   A    between atoms:  C8_15   and  C10_17 
REMARK   6   A    between atoms: C10_17   and  O11_18 
REMARK   7   A    between atoms: O11_18   and  C12_19 
REMARK   8   A    between atoms: C13_20   and  C14_25 
REMARK   9   A    between atoms: C14_25   and  N15_26 
REMARK   10  A    between atoms: C24_24   and  O25_32 
ROOT
ATOM      1 C27  MOL A   1      15.306 -20.194  -7.683  1.00  0.00    -0.024 A 
ATOM      2 C28  MOL A   1      15.212 -21.128  -6.635  1.00  0.00    -0.057 A 
ATOM      3 C29  MOL A   1      16.149 -22.161  -6.523  1.00  0.00    -0.061 A 
ATOM      4 C30  MOL A   1      17.187 -22.271  -7.452  1.00  0.00    -0.048 A 
ATOM      5 C31  MOL A   1      17.294 -21.345  -8.496  1.00  0.00     0.018 A 
ATOM      6 Br32 MOL A   1      18.728 -21.483  -9.755  1.00  0.00    -0.051 Br
ATOM      7 C33  MOL A   1      16.356 -20.315  -8.616  1.00  0.00    -0.043 A 
ENDROOT
BRANCH   1   8
ATOM      8  C6  MOL A   1      14.247 -19.124  -7.840  1.00  0.00     0.063 C 
BRANCH   8   9
ATOM      9  C5  MOL A   1      14.387 -18.075  -6.722  1.00  0.00     0.051 C 
BRANCH   9  12
ATOM     10  C1  MOL A   1      16.779 -15.096  -7.481  1.00  0.00     0.006 C 
ATOM     11  N2  MOL A   1      16.244 -16.351  -6.972  1.00  0.00    -0.359 N 
ATOM     12  C3  MOL A   1      14.905 -16.770  -7.253  1.00  0.00     0.222 C 
ATOM     13  O4  MOL A   1      14.149 -16.043  -7.955  1.00  0.00    -0.275 OA
ENDBRANCH   9  12
ENDBRANCH   8   9
BRANCH   8  14
ATOM     14  N7  MOL A   1      12.909 -19.726  -7.819  1.00  0.00    -0.346 N 
ATOM     15  C8  MOL A   1      11.838 -19.248  -8.635  1.00  0.00     0.258 C 
ATOM     16  O9  MOL A   1      12.015 -18.267  -9.405  1.00  0.00    -0.271 OA
BRANCH  15  17
ATOM     17 C10  MOL A   1      10.497 -19.917  -8.593  1.00  0.00     0.167 C 
BRANCH  17  18
ATOM     18 O11  MOL A   1      10.185 -20.489  -9.861  1.00  0.00    -0.480 OA
BRANCH  18  19
ATOM     19 C12  MOL A   1       8.910 -20.975 -10.162  1.00  0.00     0.166 A 
ATOM     20 C13  MOL A   1       7.911 -20.127 -10.692  1.00  0.00     0.012 A 
ATOM     21 C21  MOL A   1       6.669 -20.675 -11.054  1.00  0.00    -0.054 A 
ATOM     22 C22  MOL A   1       6.405 -22.029 -10.849  1.00  0.00    -0.058 A 
ATOM     23 C23  MOL A   1       7.376 -22.854 -10.280  1.00  0.00    -0.016 A 
ATOM     24 C24  MOL A   1       8.634 -22.332  -9.928  1.00  0.00     0.161 A 
BRANCH  20  25
ATOM     25 C14  MOL A   1       8.141 -18.644 -10.878  1.00  0.00     0.028 C 
BRANCH  25  26
ATOM     26 N15  MOL A   1       7.225 -17.868 -10.018  1.00  0.00    -0.287 NA
ATOM     27 C16  MOL A   1       7.728 -16.504  -9.782  1.00  0.00     0.064 C 
ATOM     28 C17  MOL A   1       7.938 -16.757  -8.303  1.00  0.00     0.272 C 
ATOM     29 F18  MOL A   1       7.099 -16.019  -7.488  1.00  0.00    -0.204 F 
ATOM     30 F19  MOL A   1       9.268 -16.725  -7.915  1.00  0.00    -0.204 F 
ATOM     31 C20  MOL A   1       7.428 -18.156  -8.587  1.00  0.00     0.064 C 
ENDBRANCH  25  26
ENDBRANCH  20  25
BRANCH  24  32
ATOM     32 O25  MOL A   1       9.636 -23.127  -9.353  1.00  0.00    -0.493 OA
ATOM     33 C26  MOL A   1       9.635 -24.551  -9.354  1.00  0.00     0.078 C 
ENDBRANCH  24  32
ENDBRANCH  18  19
ENDBRANCH  17  18
ENDBRANCH  15  17
ENDBRANCH   8  14
ENDBRANCH   1   8
TORSDOF 10
ENDMDL
MODEL 359
REMARK VINA RESULT:    -7.075      4.218      7.974
REMARK INTER + INTRA:         -12.260
REMARK INTER:                 -11.245
REMARK INTRA:                  -1.014
REMARK UNBOUND:                -1.048
REMARK  10 active torsions:
REMARK  status: ('A' for Active; 'I' for Inactive)
REMARK   1   A    between atoms:  C27_1   and   C6_8  
REMARK   2   A    between atoms:  C6_8    and   C5_9  
REMARK   3   A    between atoms:  C5_9    and   C3_12 
REMARK   4   A    between atoms:  C6_8    and   N7_14 
REMARK   5   A    between atoms:  C8_15   and  C10_17 
REMARK   6   A    between atoms: C10_17   and  O11_18 
REMARK   7   A    between atoms: O11_18   and  C12_19 
REMARK   8   A    between atoms: C13_20   and  C14_25 
REMARK   9   A    between atoms: C14_25   and  N15_26 
REMARK   10  A    between atoms: C24_24   and  O25_32 
ROOT
ATOM      1 C27  MOL A   1       5.405 -14.862 -11.608  1.00  0.00    -0.024 A 
ATOM      2 C28  MOL A   1       5.564 -13.979 -12.692  1.00  0.00    -0.057 A 
ATOM      3 C29  MOL A   1       4.583 -13.024 -12.977  1.00  0.00    -0.061 A 
ATOM      4 C30  MOL A   1       3.435 -12.940 -12.185  1.00  0.00    -0.048 A 
ATOM      5 C31  MOL A   1       3.266 -13.810 -11.101  1.00  0.00     0.018 A 
ATOM      6 Br32 MOL A   1       1.704 -13.680 -10.004  1.00  0.00    -0.051 Br
ATOM      7 C33  MOL A   1       4.242 -14.770 -10.817  1.00  0.00    -0.043 A 
ENDROOT
BRANCH   1   8
ATOM      8  C6  MOL A   1       6.437 -15.939 -11.351  1.00  0.00     0.063 C 
BRANCH   8   9
ATOM      9  C5  MOL A   1       6.683 -16.750 -12.636  1.00  0.00     0.051 C 
BRANCH   9  12
ATOM     10  C1  MOL A   1       9.926 -18.889 -12.347  1.00  0.00     0.006 C 
ATOM     11  N2  MOL A   1       9.011 -17.784 -12.591  1.00  0.00    -0.359 N 
ATOM     12  C3  MOL A   1       7.600 -17.913 -12.385  1.00  0.00     0.222 C 
ATOM     13  O4  MOL A   1       7.116 -19.008 -11.987  1.00  0.00    -0.275 OA
ENDBRANCH   9  12
ENDBRANCH   8   9
BRANCH   8  14
ATOM     14  N7  MOL A   1       5.994 -16.817 -10.263  1.00  0.00    -0.346 N 
ATOM     15  C8  MOL A   1       6.820 -17.125  -9.138  1.00  0.00     0.258 C 
ATOM     16  O9  MOL A   1       7.982 -16.647  -9.054  1.00  0.00    -0.271 OA
BRANCH  15  17
ATOM     17 C10  MOL A   1       6.308 -18.007  -8.040  1.00  0.00     0.167 C 
BRANCH  17  18
ATOM     18 O11  MOL A   1       7.234 -19.057  -7.770  1.00  0.00    -0.480 OA
BRANCH  18  19
ATOM     19 C12  MOL A   1       7.400 -20.140  -8.637  1.00  0.00     0.166 A 
ATOM     20 C13  MOL A   1       6.288 -20.869  -9.118  1.00  0.00     0.012 A 
ATOM     21 C21  MOL A   1       6.495 -21.900 -10.049  1.00  0.00    -0.054 A 
ATOM     22 C22  MOL A   1       7.785 -22.235 -10.460  1.00  0.00    -0.058 A 
ATOM     23 C23  MOL A   1       8.885 -21.548  -9.946  1.00  0.00    -0.016 A 
ATOM     24 C24  MOL A   1       8.701 -20.498  -9.027  1.00  0.00     0.161 A 
BRANCH  20  25
ATOM     25 C14  MOL A   1       4.879 -20.570  -8.655  1.00  0.00     0.028 C 
BRANCH  25  26
ATOM     26 N15  MOL A   1       4.124 -21.824  -8.456  1.00  0.00    -0.287 NA
ATOM     27 C16  MOL A   1       2.810 -21.777  -9.119  1.00  0.00     0.064 C 
ATOM     28 C17  MOL A   1       2.062 -21.822  -7.801  1.00  0.00     0.272 C 
ATOM     29 F18  MOL A   1       1.335 -22.985  -7.614  1.00  0.00    -0.204 F 
ATOM     30 F19  MOL A   1       1.352 -20.665  -7.523  1.00  0.00    -0.204 F 
ATOM     31 C20  MOL A   1       3.433 -21.856  -7.155  1.00  0.00     0.064 C 
ENDBRANCH  25  26
ENDBRANCH  20  25
BRANCH  24  32
ATOM     32 O25  MOL A   1       9.780 -19.783  -8.486  1.00  0.00    -0.493 OA
ATOM     33 C26  MOL A   1      11.001 -19.526  -9.172  1.00  0.00     0.078 C 
ENDBRANCH  24  32
ENDBRANCH  18  19
ENDBRANCH  17  18
ENDBRANCH  15  17
ENDBRANCH   8  14
ENDBRANCH   1   8
TORSDOF 10
ENDMDL
MODEL 360
REMARK VINA RESULT:    -7.075      6.115     10.250
REMARK INTER + INTRA:         -12.259
REMARK INTER:                 -12.085
REMARK INTRA:                  -0.174
REMARK UNBOUND:                -1.048
REMARK  10 active torsions:
REMARK  status: ('A' for Active; 'I' for Inactive)
REMARK   1   A    between atoms:  C27_1   and   C6_8  
REMARK   2   A    between atoms:  C6_8    and   C5_9  
REMARK   3   A    between atoms:  C5_9    and   C3_12 
REMARK   4   A    between atoms:  C6_8    and   N7_14 
REMARK   5   A    between atoms:  C8_15   and  C10_17 
REMARK   6   A    between atoms: C10_17   and  O11_18 
REMARK   7   A    between atoms: O11_18   and  C12_19 
REMARK   8   A    between atoms: C13_20   and  C14_25 
REMARK   9   A    between atoms: C14_25   and  N15_26 
REMARK   10  A    between atoms: C24_24   and  O25_32 
ROOT
ATOM      1 C27  MOL A   1       7.688 -18.354  -8.533  1.00  0.00    -0.024 A 
ATOM      2 C28  MOL A   1       7.321 -17.036  -8.208  1.00  0.00    -0.057 A 
ATOM      3 C29  MOL A   1       6.028 -16.753  -7.754  1.00  0.00    -0.061 A 
ATOM      4 C30  MOL A   1       5.091 -17.781  -7.621  1.00  0.00    -0.048 A 
ATOM      5 C31  MOL A   1       5.444 -19.098  -7.938  1.00  0.00     0.018 A 
ATOM      6 Br32 MOL A   1       4.167 -20.508  -7.735  1.00  0.00    -0.051 Br
ATOM      7 C33  MOL A   1       6.734 -19.384  -8.397  1.00  0.00    -0.043 A 
ENDROOT
BRANCH   1   8
ATOM      8  C6  MOL A   1       9.065 -18.641  -9.092  1.00  0.00     0.063 C 
BRANCH   8   9
ATOM      9  C5  MOL A   1       9.554 -20.019  -8.610  1.00  0.00     0.051 C 
BRANCH   9  12
ATOM     10  C1  MOL A   1       9.819 -23.393 -10.538  1.00  0.00     0.006 C 
ATOM     11  N2  MOL A   1       9.778 -22.406  -9.469  1.00  0.00    -0.359 N 
ATOM     12  C3  MOL A   1       9.603 -21.010  -9.736  1.00  0.00     0.222 C 
ATOM     13  O4  MOL A   1       9.485 -20.604 -10.924  1.00  0.00    -0.275 OA
ENDBRANCH   9  12
ENDBRANCH   8   9
BRANCH   8  14
ATOM     14  N7  MOL A   1      10.006 -17.590  -8.689  1.00  0.00    -0.346 N 
ATOM     15  C8  MOL A   1      10.907 -17.744  -7.591  1.00  0.00     0.258 C 
ATOM     16  O9  MOL A   1      10.911 -18.808  -6.917  1.00  0.00    -0.271 OA
BRANCH  15  17
ATOM     17 C10  MOL A   1      11.867 -16.647  -7.238  1.00  0.00     0.167 C 
BRANCH  17  18
ATOM     18 O11  MOL A   1      13.089 -17.192  -6.749  1.00  0.00    -0.480 OA
BRANCH  18  19
ATOM     19 C12  MOL A   1      14.334 -16.730  -7.184  1.00  0.00     0.166 A 
ATOM     20 C13  MOL A   1      14.978 -15.648  -6.541  1.00  0.00     0.012 A 
ATOM     21 C21  MOL A   1      16.264 -15.268  -6.962  1.00  0.00    -0.054 A 
ATOM     22 C22  MOL A   1      16.879 -15.917  -8.032  1.00  0.00    -0.058 A 
ATOM     23 C23  MOL A   1      16.221 -16.951  -8.698  1.00  0.00    -0.016 A 
ATOM     24 C24  MOL A   1      14.941 -17.363  -8.282  1.00  0.00     0.161 A 
BRANCH  20  25
ATOM     25 C14  MOL A   1      14.320 -14.887  -5.412  1.00  0.00     0.028 C 
BRANCH  25  26
ATOM     26 N15  MOL A   1      15.290 -14.633  -4.327  1.00  0.00    -0.287 NA
ATOM     27 C16  MOL A   1      15.551 -15.848  -3.538  1.00  0.00     0.064 C 
ATOM     28 C17  MOL A   1      14.916 -15.264  -2.292  1.00  0.00     0.272 C 
ATOM     29 F18  MOL A   1      15.813 -15.042  -1.262  1.00  0.00    -0.204 F 
ATOM     30 F19  MOL A   1      13.760 -15.918  -1.897  1.00  0.00    -0.204 F 
ATOM     31 C20  MOL A   1      14.653 -14.036  -3.140  1.00  0.00     0.064 C 
ENDBRANCH  25  26
ENDBRANCH  20  25
BRANCH  24  32
ATOM     32 O25  MOL A   1      14.245 -18.397  -8.924  1.00  0.00    -0.493 OA
ATOM     33 C26  MOL A   1      14.237 -19.753  -8.491  1.00  0.00     0.078 C 
ENDBRANCH  24  32
ENDBRANCH  18  19
ENDBRANCH  17  18
ENDBRANCH  15  17
ENDBRANCH   8  14
ENDBRANCH   1   8
TORSDOF 10
ENDMDL
MODEL 361
REMARK VINA RESULT:    -7.074      6.911     11.695
REMARK INTER + INTRA:         -12.258
REMARK INTER:                 -11.190
REMARK INTRA:                  -1.069
REMARK UNBOUND:                -1.048
REMARK  10 active torsions:
REMARK  status: ('A' for Active; 'I' for Inactive)
REMARK   1   A    between atoms:  C27_1   and   C6_8  
REMARK   2   A    between atoms:  C6_8    and   C5_9  
REMARK   3   A    between atoms:  C5_9    and   C3_12 
REMARK   4   A    between atoms:  C6_8    and   N7_14 
REMARK   5   A    between atoms:  C8_15   and  C10_17 
REMARK   6   A    between atoms: C10_17   and  O11_18 
REMARK   7   A    between atoms: O11_18   and  C12_19 
REMARK   8   A    between atoms: C13_20   and  C14_25 
REMARK   9   A    between atoms: C14_25   and  N15_26 
REMARK   10  A    between atoms: C24_24   and  O25_32 
ROOT
ATOM      1 C27  MOL A   1       9.737 -18.419  -9.219  1.00  0.00    -0.024 A 
ATOM      2 C28  MOL A   1       9.511 -17.437  -8.236  1.00  0.00    -0.057 A 
ATOM      3 C29  MOL A   1       8.562 -16.431  -8.446  1.00  0.00    -0.061 A 
ATOM      4 C30  MOL A   1       7.831 -16.394  -9.637  1.00  0.00    -0.048 A 
ATOM      5 C31  MOL A   1       8.044 -17.366 -10.621  1.00  0.00     0.018 A 
ATOM      6 Br32 MOL A   1       7.027 -17.328 -12.241  1.00  0.00    -0.051 Br
ATOM      7 C33  MOL A   1       8.996 -18.371 -10.417  1.00  0.00    -0.043 A 
ENDROOT
BRANCH   1   8
ATOM      8  C6  MOL A   1      10.816 -19.460  -9.015  1.00  0.00     0.063 C 
BRANCH   8   9
ATOM      9  C5  MOL A   1      10.225 -20.705  -8.330  1.00  0.00     0.051 C 
BRANCH   9  12
ATOM     10  C1  MOL A   1       8.275 -22.482 -11.195  1.00  0.00     0.006 C 
ATOM     11  N2  MOL A   1       9.346 -21.898 -10.401  1.00  0.00    -0.359 N 
ATOM     12  C3  MOL A   1       9.097 -21.290  -9.129  1.00  0.00     0.222 C 
ATOM     13  O4  MOL A   1       7.923 -21.244  -8.669  1.00  0.00    -0.275 OA
ENDBRANCH   9  12
ENDBRANCH   8   9
BRANCH   8  14
ATOM     14  N7  MOL A   1      11.915 -18.904  -8.217  1.00  0.00    -0.346 N 
ATOM     15  C8  MOL A   1      13.176 -18.548  -8.787  1.00  0.00     0.258 C 
ATOM     16  O9  MOL A   1      13.387 -18.716 -10.017  1.00  0.00    -0.271 OA
BRANCH  15  17
ATOM     17 C10  MOL A   1      14.256 -17.959  -7.930  1.00  0.00     0.167 C 
BRANCH  17  18
ATOM     18 O11  MOL A   1      14.092 -18.363  -6.572  1.00  0.00    -0.480 OA
BRANCH  18  19
ATOM     19 C12  MOL A   1      15.075 -18.131  -5.606  1.00  0.00     0.166 A 
ATOM     20 C13  MOL A   1      16.005 -19.136  -5.254  1.00  0.00     0.012 A 
ATOM     21 C21  MOL A   1      17.025 -18.834  -4.336  1.00  0.00    -0.054 A 
ATOM     22 C22  MOL A   1      17.091 -17.574  -3.741  1.00  0.00    -0.058 A 
ATOM     23 C23  MOL A   1      16.142 -16.601  -4.052  1.00  0.00    -0.016 A 
ATOM     24 C24  MOL A   1      15.123 -16.873  -4.984  1.00  0.00     0.161 A 
BRANCH  20  25
ATOM     25 C14  MOL A   1      15.932 -20.529  -5.838  1.00  0.00     0.028 C 
BRANCH  25  26
ATOM     26 N15  MOL A   1      17.180 -20.852  -6.561  1.00  0.00    -0.287 NA
ATOM     27 C16  MOL A   1      17.225 -20.201  -7.881  1.00  0.00     0.064 C 
ATOM     28 C17  MOL A   1      17.165 -21.525  -8.617  1.00  0.00     0.272 C 
ATOM     29 F18  MOL A   1      18.322 -21.826  -9.314  1.00  0.00    -0.204 F 
ATOM     30 F19  MOL A   1      16.004 -21.702  -9.352  1.00  0.00    -0.204 F 
ATOM     31 C20  MOL A   1      17.107 -22.157  -7.240  1.00  0.00     0.064 C 
ENDBRANCH  25  26
ENDBRANCH  20  25
BRANCH  24  32
ATOM     32 O25  MOL A   1      14.150 -15.923  -5.323  1.00  0.00    -0.493 OA
ATOM     33 C26  MOL A   1      14.090 -14.604  -4.789  1.00  0.00     0.078 C 
ENDBRANCH  24  32
ENDBRANCH  18  19
ENDBRANCH  17  18
ENDBRANCH  15  17
ENDBRANCH   8  14
ENDBRANCH   1   8
TORSDOF 10
ENDMDL
MODEL 362
REMARK VINA RESULT:    -7.073      7.075     10.768
REMARK INTER + INTRA:         -12.256
REMARK INTER:                 -10.731
REMARK INTRA:                  -1.525
REMARK UNBOUND:                -1.048
REMARK  10 active torsions:
REMARK  status: ('A' for Active; 'I' for Inactive)
REMARK   1   A    between atoms:  C27_1   and   C6_8  
REMARK   2   A    between atoms:  C6_8    and   C5_9  
REMARK   3   A    between atoms:  C5_9    and   C3_12 
REMARK   4   A    between atoms:  C6_8    and   N7_14 
REMARK   5   A    between atoms:  C8_15   and  C10_17 
REMARK   6   A    between atoms: C10_17   and  O11_18 
REMARK   7   A    between atoms: O11_18   and  C12_19 
REMARK   8   A    between atoms: C13_20   and  C14_25 
REMARK   9   A    between atoms: C14_25   and  N15_26 
REMARK   10  A    between atoms: C24_24   and  O25_32 
ROOT
ATOM      1 C27  MOL A   1       9.922 -19.113  -8.739  1.00  0.00    -0.024 A 
ATOM      2 C28  MOL A   1       9.776 -18.307  -9.882  1.00  0.00    -0.057 A 
ATOM      3 C29  MOL A   1       8.540 -18.215 -10.530  1.00  0.00    -0.061 A 
ATOM      4 C30  MOL A   1       7.439 -18.926 -10.044  1.00  0.00    -0.048 A 
ATOM      5 C31  MOL A   1       7.570 -19.729  -8.906  1.00  0.00     0.018 A 
ATOM      6 Br32 MOL A   1       6.057 -20.685  -8.230  1.00  0.00    -0.051 Br
ATOM      7 C33  MOL A   1       8.806 -19.828  -8.259  1.00  0.00    -0.043 A 
ENDROOT
BRANCH   1   8
ATOM      8  C6  MOL A   1      11.280 -19.264  -8.087  1.00  0.00     0.063 C 
BRANCH   8   9
ATOM      9  C5  MOL A   1      11.347 -20.592  -7.311  1.00  0.00     0.051 C 
BRANCH   9  12
ATOM     10  C1  MOL A   1      15.045 -21.229  -8.357  1.00  0.00     0.006 C 
ATOM     11  N2  MOL A   1      13.743 -20.603  -8.175  1.00  0.00    -0.359 N 
ATOM     12  C3  MOL A   1      12.676 -21.268  -7.491  1.00  0.00     0.222 C 
ATOM     13  O4  MOL A   1      12.846 -22.430  -7.031  1.00  0.00    -0.275 OA
ENDBRANCH   9  12
ENDBRANCH   8   9
BRANCH   8  14
ATOM     14  N7  MOL A   1      11.544 -18.131  -7.194  1.00  0.00    -0.346 N 
ATOM     15  C8  MOL A   1      12.438 -17.071  -7.541  1.00  0.00     0.258 C 
ATOM     16  O9  MOL A   1      13.045 -17.087  -8.644  1.00  0.00    -0.271 OA
BRANCH  15  17
ATOM     17 C10  MOL A   1      12.651 -15.922  -6.602  1.00  0.00     0.167 C 
BRANCH  17  18
ATOM     18 O11  MOL A   1      14.042 -15.635  -6.472  1.00  0.00    -0.480 OA
BRANCH  18  19
ATOM     19 C12  MOL A   1      14.829 -16.217  -5.475  1.00  0.00     0.166 A 
ATOM     20 C13  MOL A   1      15.779 -17.217  -5.784  1.00  0.00     0.012 A 
ATOM     21 C21  MOL A   1      16.604 -17.718  -4.762  1.00  0.00    -0.054 A 
ATOM     22 C22  MOL A   1      16.456 -17.270  -3.450  1.00  0.00    -0.058 A 
ATOM     23 C23  MOL A   1      15.484 -16.320  -3.138  1.00  0.00    -0.016 A 
ATOM     24 C24  MOL A   1      14.659 -15.789  -4.148  1.00  0.00     0.161 A 
BRANCH  20  25
ATOM     25 C14  MOL A   1      15.932 -17.765  -7.185  1.00  0.00     0.028 C 
BRANCH  25  26
ATOM     26 N15  MOL A   1      17.249 -17.396  -7.743  1.00  0.00    -0.287 NA
ATOM     27 C16  MOL A   1      17.112 -16.552  -8.943  1.00  0.00     0.064 C 
ATOM     28 C17  MOL A   1      17.699 -17.618  -9.848  1.00  0.00     0.272 C 
ATOM     29 F18  MOL A   1      18.923 -17.272 -10.392  1.00  0.00    -0.204 F 
ATOM     30 F19  MOL A   1      16.797 -18.123 -10.771  1.00  0.00    -0.204 F 
ATOM     31 C20  MOL A   1      17.811 -18.460  -8.592  1.00  0.00     0.064 C 
ENDBRANCH  25  26
ENDBRANCH  20  25
BRANCH  24  32
ATOM     32 O25  MOL A   1      13.669 -14.833  -3.877  1.00  0.00    -0.493 OA
ATOM     33 C26  MOL A   1      13.871 -13.667  -3.086  1.00  0.00     0.078 C 
ENDBRANCH  24  32
ENDBRANCH  18  19
ENDBRANCH  17  18
ENDBRANCH  15  17
ENDBRANCH   8  14
ENDBRANCH   1   8
TORSDOF 10
ENDMDL
MODEL 363
REMARK VINA RESULT:    -7.071      6.573      9.803
REMARK INTER + INTRA:         -12.253
REMARK INTER:                 -10.917
REMARK INTRA:                  -1.336
REMARK UNBOUND:                -1.048
REMARK  10 active torsions:
REMARK  status: ('A' for Active; 'I' for Inactive)
REMARK   1   A    between atoms:  C27_1   and   C6_8  
REMARK   2   A    between atoms:  C6_8    and   C5_9  
REMARK   3   A    between atoms:  C5_9    and   C3_12 
REMARK   4   A    between atoms:  C6_8    and   N7_14 
REMARK   5   A    between atoms:  C8_15   and  C10_17 
REMARK   6   A    between atoms: C10_17   and  O11_18 
REMARK   7   A    between atoms: O11_18   and  C12_19 
REMARK   8   A    between atoms: C13_20   and  C14_25 
REMARK   9   A    between atoms: C14_25   and  N15_26 
REMARK   10  A    between atoms: C24_24   and  O25_32 
ROOT
ATOM      1 C27  MOL A   1      15.285 -19.658  -5.069  1.00  0.00    -0.024 A 
ATOM      2 C28  MOL A   1      14.824 -20.255  -3.881  1.00  0.00    -0.057 A 
ATOM      3 C29  MOL A   1      15.181 -19.724  -2.637  1.00  0.00    -0.061 A 
ATOM      4 C30  MOL A   1      16.000 -18.594  -2.566  1.00  0.00    -0.048 A 
ATOM      5 C31  MOL A   1      16.463 -17.988  -3.740  1.00  0.00     0.018 A 
ATOM      6 Br32 MOL A   1      17.567 -16.429  -3.642  1.00  0.00    -0.051 Br
ATOM      7 C33  MOL A   1      16.113 -18.520  -4.985  1.00  0.00    -0.043 A 
ENDROOT
BRANCH   1   8
ATOM      8  C6  MOL A   1      14.955 -20.282  -6.408  1.00  0.00     0.063 C 
BRANCH   8   9
ATOM      9  C5  MOL A   1      15.887 -19.719  -7.496  1.00  0.00     0.051 C 
BRANCH   9  12
ATOM     10  C1  MOL A   1      18.132 -22.901  -7.467  1.00  0.00     0.006 C 
ATOM     11  N2  MOL A   1      17.076 -21.946  -7.164  1.00  0.00    -0.359 N 
ATOM     12  C3  MOL A   1      16.995 -20.678  -7.823  1.00  0.00     0.222 C 
ATOM     13  O4  MOL A   1      17.855 -20.358  -8.688  1.00  0.00    -0.275 OA
ENDBRANCH   9  12
ENDBRANCH   8   9
BRANCH   8  14
ATOM     14  N7  MOL A   1      13.551 -20.034  -6.751  1.00  0.00    -0.346 N 
ATOM     15  C8  MOL A   1      12.760 -20.973  -7.482  1.00  0.00     0.258 C 
ATOM     16  O9  MOL A   1      13.263 -22.061  -7.870  1.00  0.00    -0.271 OA
BRANCH  15  17
ATOM     17 C10  MOL A   1      11.321 -20.681  -7.784  1.00  0.00     0.167 C 
BRANCH  17  18
ATOM     18 O11  MOL A   1      11.216 -19.666  -8.780  1.00  0.00    -0.480 OA
BRANCH  18  19
ATOM     19 C12  MOL A   1      10.277 -18.636  -8.692  1.00  0.00     0.166 A 
ATOM     20 C13  MOL A   1       8.993 -18.765  -9.271  1.00  0.00     0.012 A 
ATOM     21 C21  MOL A   1       8.053 -17.737  -9.090  1.00  0.00    -0.054 A 
ATOM     22 C22  MOL A   1       8.395 -16.580  -8.390  1.00  0.00    -0.058 A 
ATOM     23 C23  MOL A   1       9.678 -16.433  -7.863  1.00  0.00    -0.016 A 
ATOM     24 C24  MOL A   1      10.630 -17.458  -8.014  1.00  0.00     0.161 A 
BRANCH  20  25
ATOM     25 C14  MOL A   1       8.604 -19.981 -10.081  1.00  0.00     0.028 C 
BRANCH  25  26
ATOM     26 N15  MOL A   1       7.134 -20.088 -10.178  1.00  0.00    -0.287 NA
ATOM     27 C16  MOL A   1       6.608 -21.145  -9.296  1.00  0.00     0.064 C 
ATOM     28 C17  MOL A   1       6.145 -21.992 -10.466  1.00  0.00     0.272 C 
ATOM     29 F18  MOL A   1       4.770 -22.115 -10.552  1.00  0.00    -0.204 F 
ATOM     30 F19  MOL A   1       6.825 -23.192 -10.589  1.00  0.00    -0.204 F 
ATOM     31 C20  MOL A   1       6.709 -20.888 -11.339  1.00  0.00     0.064 C 
ENDBRANCH  25  26
ENDBRANCH  20  25
BRANCH  24  32
ATOM     32 O25  MOL A   1      11.931 -17.349  -7.500  1.00  0.00    -0.493 OA
ATOM     33 C26  MOL A   1      13.056 -16.894  -8.245  1.00  0.00     0.078 C 
ENDBRANCH  24  32
ENDBRANCH  18  19
ENDBRANCH  17  18
ENDBRANCH  15  17
ENDBRANCH   8  14
ENDBRANCH   1   8
TORSDOF 10
ENDMDL
MODEL 364
REMARK VINA RESULT:    -7.068      6.970     11.753
REMARK INTER + INTRA:         -12.249
REMARK INTER:                  -9.961
REMARK INTRA:                  -2.287
REMARK UNBOUND:                -1.048
REMARK  10 active torsions:
REMARK  status: ('A' for Active; 'I' for Inactive)
REMARK   1   A    between atoms:  C27_1   and   C6_8  
REMARK   2   A    between atoms:  C6_8    and   C5_9  
REMARK   3   A    between atoms:  C5_9    and   C3_12 
REMARK   4   A    between atoms:  C6_8    and   N7_14 
REMARK   5   A    between atoms:  C8_15   and  C10_17 
REMARK   6   A    between atoms: C10_17   and  O11_18 
REMARK   7   A    between atoms: O11_18   and  C12_19 
REMARK   8   A    between atoms: C13_20   and  C14_25 
REMARK   9   A    between atoms: C14_25   and  N15_26 
REMARK   10  A    between atoms: C24_24   and  O25_32 
ROOT
ATOM      1 C27  MOL A   1      12.989 -19.638  -7.209  1.00  0.00    -0.024 A 
ATOM      2 C28  MOL A   1      13.945 -19.800  -6.189  1.00  0.00    -0.057 A 
ATOM      3 C29  MOL A   1      14.315 -21.081  -5.764  1.00  0.00    -0.061 A 
ATOM      4 C30  MOL A   1      13.736 -22.209  -6.350  1.00  0.00    -0.048 A 
ATOM      5 C31  MOL A   1      12.786 -22.062  -7.367  1.00  0.00     0.018 A 
ATOM      6 Br32 MOL A   1      12.010 -23.608  -8.184  1.00  0.00    -0.051 Br
ATOM      7 C33  MOL A   1      12.410 -20.784  -7.791  1.00  0.00    -0.043 A 
ENDROOT
BRANCH   1   8
ATOM      8  C6  MOL A   1      12.541 -18.250  -7.613  1.00  0.00     0.063 C 
BRANCH   8   9
ATOM      9  C5  MOL A   1      11.842 -18.300  -8.984  1.00  0.00     0.051 C 
BRANCH   9  12
ATOM     10  C1  MOL A   1       8.085 -17.706  -9.827  1.00  0.00     0.006 C 
ATOM     11  N2  MOL A   1       9.463 -18.172  -9.886  1.00  0.00    -0.359 N 
ATOM     12  C3  MOL A   1      10.430 -17.794  -8.900  1.00  0.00     0.222 C 
ATOM     13  O4  MOL A   1      10.101 -17.034  -7.950  1.00  0.00    -0.275 OA
ENDBRANCH   9  12
ENDBRANCH   8   9
BRANCH   8  14
ATOM     14  N7  MOL A   1      13.688 -17.337  -7.651  1.00  0.00    -0.346 N 
ATOM     15  C8  MOL A   1      13.692 -16.078  -6.975  1.00  0.00     0.258 C 
ATOM     16  O9  MOL A   1      12.682 -15.706  -6.320  1.00  0.00    -0.271 OA
BRANCH  15  17
ATOM     17 C10  MOL A   1      14.901 -15.194  -7.025  1.00  0.00     0.167 C 
BRANCH  17  18
ATOM     18 O11  MOL A   1      15.589 -15.217  -5.777  1.00  0.00    -0.480 OA
BRANCH  18  19
ATOM     19 C12  MOL A   1      15.963 -16.413  -5.158  1.00  0.00     0.166 A 
ATOM     20 C13  MOL A   1      16.937 -17.260  -5.734  1.00  0.00     0.012 A 
ATOM     21 C21  MOL A   1      17.340 -18.413  -5.039  1.00  0.00    -0.054 A 
ATOM     22 C22  MOL A   1      16.752 -18.745  -3.818  1.00  0.00    -0.058 A 
ATOM     23 C23  MOL A   1      15.754 -17.935  -3.277  1.00  0.00    -0.016 A 
ATOM     24 C24  MOL A   1      15.349 -16.764  -3.945  1.00  0.00     0.161 A 
BRANCH  20  25
ATOM     25 C14  MOL A   1      17.558 -16.961  -7.080  1.00  0.00     0.028 C 
BRANCH  25  26
ATOM     26 N15  MOL A   1      17.160 -17.982  -8.071  1.00  0.00    -0.287 NA
ATOM     27 C16  MOL A   1      18.332 -18.609  -8.704  1.00  0.00     0.064 C 
ATOM     28 C17  MOL A   1      18.001 -18.026 -10.064  1.00  0.00     0.272 C 
ATOM     29 F18  MOL A   1      17.647 -18.977 -11.004  1.00  0.00    -0.204 F 
ATOM     30 F19  MOL A   1      18.933 -17.107 -10.518  1.00  0.00    -0.204 F 
ATOM     31 C20  MOL A   1      16.813 -17.387  -9.373  1.00  0.00     0.064 C 
ENDBRANCH  25  26
ENDBRANCH  20  25
BRANCH  24  32
ATOM     32 O25  MOL A   1      14.349 -15.923  -3.435  1.00  0.00    -0.493 OA
ATOM     33 C26  MOL A   1      14.403 -15.288  -2.162  1.00  0.00     0.078 C 
ENDBRANCH  24  32
ENDBRANCH  18  19
ENDBRANCH  17  18
ENDBRANCH  15  17
ENDBRANCH   8  14
ENDBRANCH   1   8
TORSDOF 10
ENDMDL
MODEL 365
REMARK VINA RESULT:    -7.065      5.729      9.607
REMARK INTER + INTRA:         -12.244
REMARK INTER:                 -10.902
REMARK INTRA:                  -1.342
REMARK UNBOUND:                -1.048
REMARK  10 active torsions:
REMARK  status: ('A' for Active; 'I' for Inactive)
REMARK   1   A    between atoms:  C27_1   and   C6_8  
REMARK   2   A    between atoms:  C6_8    and   C5_9  
REMARK   3   A    between atoms:  C5_9    and   C3_12 
REMARK   4   A    between atoms:  C6_8    and   N7_14 
REMARK   5   A    between atoms:  C8_15   and  C10_17 
REMARK   6   A    between atoms: C10_17   and  O11_18 
REMARK   7   A    between atoms: O11_18   and  C12_19 
REMARK   8   A    between atoms: C13_20   and  C14_25 
REMARK   9   A    between atoms: C14_25   and  N15_26 
REMARK   10  A    between atoms: C24_24   and  O25_32 
ROOT
ATOM      1 C27  MOL A   1      15.928 -17.629  -7.643  1.00  0.00    -0.024 A 
ATOM      2 C28  MOL A   1      16.027 -16.611  -8.610  1.00  0.00    -0.057 A 
ATOM      3 C29  MOL A   1      16.486 -15.339  -8.253  1.00  0.00    -0.061 A 
ATOM      4 C30  MOL A   1      16.850 -15.070  -6.931  1.00  0.00    -0.048 A 
ATOM      5 C31  MOL A   1      16.759 -16.074  -5.960  1.00  0.00     0.018 A 
ATOM      6 Br32 MOL A   1      17.278 -15.711  -4.155  1.00  0.00    -0.051 Br
ATOM      7 C33  MOL A   1      16.295 -17.345  -6.312  1.00  0.00    -0.043 A 
ENDROOT
BRANCH   1   8
ATOM      8  C6  MOL A   1      15.361 -18.980  -8.022  1.00  0.00     0.063 C 
BRANCH   8   9
ATOM      9  C5  MOL A   1      16.224 -19.624  -9.122  1.00  0.00     0.051 C 
BRANCH   9  12
ATOM     10  C1  MOL A   1      19.205 -21.168  -7.147  1.00  0.00     0.006 C 
ATOM     11  N2  MOL A   1      17.863 -20.876  -7.628  1.00  0.00    -0.359 N 
ATOM     12  C3  MOL A   1      17.620 -19.893  -8.640  1.00  0.00     0.222 C 
ATOM     13  O4  MOL A   1      18.583 -19.247  -9.138  1.00  0.00    -0.275 OA
ENDBRANCH   9  12
ENDBRANCH   8   9
BRANCH   8  14
ATOM     14  N7  MOL A   1      13.972 -18.841  -8.471  1.00  0.00    -0.346 N 
ATOM     15  C8  MOL A   1      12.985 -19.849  -8.240  1.00  0.00     0.258 C 
ATOM     16  O9  MOL A   1      13.292 -20.913  -7.640  1.00  0.00    -0.271 OA
BRANCH  15  17
ATOM     17 C10  MOL A   1      11.572 -19.645  -8.697  1.00  0.00     0.167 C 
BRANCH  17  18
ATOM     18 O11  MOL A   1      10.698 -20.561  -8.041  1.00  0.00    -0.480 OA
BRANCH  18  19
ATOM     19 C12  MOL A   1       9.753 -21.316  -8.741  1.00  0.00     0.166 A 
ATOM     20 C13  MOL A   1       8.454 -20.815  -8.988  1.00  0.00     0.012 A 
ATOM     21 C21  MOL A   1       7.563 -21.575  -9.764  1.00  0.00    -0.054 A 
ATOM     22 C22  MOL A   1       7.936 -22.829 -10.246  1.00  0.00    -0.058 A 
ATOM     23 C23  MOL A   1       9.201 -23.343  -9.958  1.00  0.00    -0.016 A 
ATOM     24 C24  MOL A   1      10.118 -22.592  -9.200  1.00  0.00     0.161 A 
BRANCH  20  25
ATOM     25 C14  MOL A   1       7.996 -19.483  -8.437  1.00  0.00     0.028 C 
BRANCH  25  26
ATOM     26 N15  MOL A   1       7.472 -18.629  -9.522  1.00  0.00    -0.287 NA
ATOM     27 C16  MOL A   1       8.523 -17.769 -10.091  1.00  0.00     0.064 C 
ATOM     28 C17  MOL A   1       7.861 -16.501  -9.588  1.00  0.00     0.272 C 
ATOM     29 F18  MOL A   1       7.385 -15.685 -10.599  1.00  0.00    -0.204 F 
ATOM     30 F19  MOL A   1       8.598 -15.831  -8.626  1.00  0.00    -0.204 F 
ATOM     31 C20  MOL A   1       6.805 -17.421  -9.006  1.00  0.00     0.064 C 
ENDBRANCH  25  26
ENDBRANCH  20  25
BRANCH  24  32
ATOM     32 O25  MOL A   1      11.398 -23.073  -8.889  1.00  0.00    -0.493 OA
ATOM     33 C26  MOL A   1      11.663 -24.358  -8.336  1.00  0.00     0.078 C 
ENDBRANCH  24  32
ENDBRANCH  18  19
ENDBRANCH  17  18
ENDBRANCH  15  17
ENDBRANCH   8  14
ENDBRANCH   1   8
TORSDOF 10
ENDMDL
MODEL 366
REMARK VINA RESULT:    -7.065      6.349     10.886
REMARK INTER + INTRA:         -12.243
REMARK INTER:                 -11.345
REMARK INTRA:                  -0.898
REMARK UNBOUND:                -1.048
REMARK  10 active torsions:
REMARK  status: ('A' for Active; 'I' for Inactive)
REMARK   1   A    between atoms:  C27_1   and   C6_8  
REMARK   2   A    between atoms:  C6_8    and   C5_9  
REMARK   3   A    between atoms:  C5_9    and   C3_12 
REMARK   4   A    between atoms:  C6_8    and   N7_14 
REMARK   5   A    between atoms:  C8_15   and  C10_17 
REMARK   6   A    between atoms: C10_17   and  O11_18 
REMARK   7   A    between atoms: O11_18   and  C12_19 
REMARK   8   A    between atoms: C13_20   and  C14_25 
REMARK   9   A    between atoms: C14_25   and  N15_26 
REMARK   10  A    between atoms: C24_24   and  O25_32 
ROOT
ATOM      1 C27  MOL A   1       8.973 -20.779  -9.561  1.00  0.00    -0.024 A 
ATOM      2 C28  MOL A   1       7.698 -21.265  -9.903  1.00  0.00    -0.057 A 
ATOM      3 C29  MOL A   1       7.469 -22.641 -10.005  1.00  0.00    -0.061 A 
ATOM      4 C30  MOL A   1       8.509 -23.544  -9.767  1.00  0.00    -0.048 A 
ATOM      5 C31  MOL A   1       9.781 -23.074  -9.423  1.00  0.00     0.018 A 
ATOM      6 Br32 MOL A   1      11.198 -24.312  -9.076  1.00  0.00    -0.051 Br
ATOM      7 C33  MOL A   1      10.015 -21.699  -9.326  1.00  0.00    -0.043 A 
ENDROOT
BRANCH   1   8
ATOM      8  C6  MOL A   1       9.230 -19.288  -9.525  1.00  0.00     0.063 C 
BRANCH   8   9
ATOM      9  C5  MOL A   1       8.312 -18.569 -10.529  1.00  0.00     0.051 C 
BRANCH   9  12
ATOM     10  C1  MOL A   1       6.027 -16.787  -7.927  1.00  0.00     0.006 C 
ATOM     11  N2  MOL A   1       6.835 -17.789  -8.607  1.00  0.00    -0.359 N 
ATOM     12  C3  MOL A   1       7.477 -17.518  -9.857  1.00  0.00     0.222 C 
ATOM     13  O4  MOL A   1       7.348 -16.388 -10.403  1.00  0.00    -0.275 OA
ENDBRANCH   9  12
ENDBRANCH   8   9
BRANCH   8  14
ATOM     14  N7  MOL A   1      10.639 -19.008  -9.821  1.00  0.00    -0.346 N 
ATOM     15  C8  MOL A   1      11.536 -18.463  -8.851  1.00  0.00     0.258 C 
ATOM     16  O9  MOL A   1      11.129 -18.193  -7.690  1.00  0.00    -0.271 OA
BRANCH  15  17
ATOM     17 C10  MOL A   1      12.974 -18.221  -9.200  1.00  0.00     0.167 C 
BRANCH  17  18
ATOM     18 O11  MOL A   1      13.731 -17.934  -8.026  1.00  0.00    -0.480 OA
BRANCH  18  19
ATOM     19 C12  MOL A   1      14.679 -16.908  -7.987  1.00  0.00     0.166 A 
ATOM     20 C13  MOL A   1      16.015 -17.133  -8.390  1.00  0.00     0.012 A 
ATOM     21 C21  MOL A   1      16.915 -16.054  -8.410  1.00  0.00    -0.054 A 
ATOM     22 C22  MOL A   1      16.511 -14.786  -7.993  1.00  0.00    -0.058 A 
ATOM     23 C23  MOL A   1      15.205 -14.578  -7.548  1.00  0.00    -0.016 A 
ATOM     24 C24  MOL A   1      14.280 -15.639  -7.538  1.00  0.00     0.161 A 
BRANCH  20  25
ATOM     25 C14  MOL A   1      16.505 -18.505  -8.798  1.00  0.00     0.028 C 
BRANCH  25  26
ATOM     26 N15  MOL A   1      16.729 -19.348  -7.606  1.00  0.00    -0.287 NA
ATOM     27 C16  MOL A   1      16.684 -18.555  -6.366  1.00  0.00     0.064 C 
ATOM     28 C17  MOL A   1      18.151 -18.796  -6.071  1.00  0.00     0.272 C 
ATOM     29 F18  MOL A   1      18.373 -19.568  -4.944  1.00  0.00    -0.204 F 
ATOM     30 F19  MOL A   1      18.927 -17.650  -6.127  1.00  0.00    -0.204 F 
ATOM     31 C20  MOL A   1      18.161 -19.593  -7.361  1.00  0.00     0.064 C 
ENDBRANCH  25  26
ENDBRANCH  20  25
BRANCH  24  32
ATOM     32 O25  MOL A   1      12.959 -15.471  -7.098  1.00  0.00    -0.493 OA
ATOM     33 C26  MOL A   1      12.588 -15.183  -5.754  1.00  0.00     0.078 C 
ENDBRANCH  24  32
ENDBRANCH  18  19
ENDBRANCH  17  18
ENDBRANCH  15  17
ENDBRANCH   8  14
ENDBRANCH   1   8
TORSDOF 10
ENDMDL
MODEL 367
REMARK VINA RESULT:    -7.063      7.015     11.844
REMARK INTER + INTRA:         -12.240
REMARK INTER:                 -10.041
REMARK INTRA:                  -2.198
REMARK UNBOUND:                -1.048
REMARK  10 active torsions:
REMARK  status: ('A' for Active; 'I' for Inactive)
REMARK   1   A    between atoms:  C27_1   and   C6_8  
REMARK   2   A    between atoms:  C6_8    and   C5_9  
REMARK   3   A    between atoms:  C5_9    and   C3_12 
REMARK   4   A    between atoms:  C6_8    and   N7_14 
REMARK   5   A    between atoms:  C8_15   and  C10_17 
REMARK   6   A    between atoms: C10_17   and  O11_18 
REMARK   7   A    between atoms: O11_18   and  C12_19 
REMARK   8   A    between atoms: C13_20   and  C14_25 
REMARK   9   A    between atoms: C14_25   and  N15_26 
REMARK   10  A    between atoms: C24_24   and  O25_32 
ROOT
ATOM      1 C27  MOL A   1      12.843 -19.509  -7.360  1.00  0.00    -0.024 A 
ATOM      2 C28  MOL A   1      11.891 -20.530  -7.537  1.00  0.00    -0.057 A 
ATOM      3 C29  MOL A   1      12.274 -21.874  -7.467  1.00  0.00    -0.061 A 
ATOM      4 C30  MOL A   1      13.608 -22.211  -7.221  1.00  0.00    -0.048 A 
ATOM      5 C31  MOL A   1      14.564 -21.206  -7.040  1.00  0.00     0.018 A 
ATOM      6 Br32 MOL A   1      16.385 -21.669  -6.682  1.00  0.00    -0.051 Br
ATOM      7 C33  MOL A   1      14.186 -19.861  -7.115  1.00  0.00    -0.043 A 
ENDROOT
BRANCH   1   8
ATOM      8  C6  MOL A   1      12.435 -18.059  -7.509  1.00  0.00     0.063 C 
BRANCH   8   9
ATOM      9  C5  MOL A   1      11.618 -17.871  -8.800  1.00  0.00     0.051 C 
BRANCH   9  12
ATOM     10  C1  MOL A   1       7.757 -17.410  -9.031  1.00  0.00     0.006 C 
ATOM     11  N2  MOL A   1       9.121 -17.845  -9.298  1.00  0.00    -0.359 N 
ATOM     12  C3  MOL A   1      10.225 -17.396  -8.505  1.00  0.00     0.222 C 
ATOM     13  O4  MOL A   1      10.032 -16.598  -7.548  1.00  0.00    -0.275 OA
ENDBRANCH   9  12
ENDBRANCH   8   9
BRANCH   8  14
ATOM     14  N7  MOL A   1      13.621 -17.196  -7.518  1.00  0.00    -0.346 N 
ATOM     15  C8  MOL A   1      13.704 -15.994  -6.749  1.00  0.00     0.258 C 
ATOM     16  O9  MOL A   1      12.733 -15.630  -6.033  1.00  0.00    -0.271 OA
BRANCH  15  17
ATOM     17 C10  MOL A   1      14.950 -15.162  -6.774  1.00  0.00     0.167 C 
BRANCH  17  18
ATOM     18 O11  MOL A   1      15.622 -15.231  -5.519  1.00  0.00    -0.480 OA
BRANCH  18  19
ATOM     19 C12  MOL A   1      16.006 -16.448  -4.950  1.00  0.00     0.166 A 
ATOM     20 C13  MOL A   1      16.945 -17.290  -5.589  1.00  0.00     0.012 A 
ATOM     21 C21  MOL A   1      17.361 -18.466  -4.943  1.00  0.00    -0.054 A 
ATOM     22 C22  MOL A   1      16.821 -18.825  -3.708  1.00  0.00    -0.058 A 
ATOM     23 C23  MOL A   1      15.858 -18.018  -3.103  1.00  0.00    -0.016 A 
ATOM     24 C24  MOL A   1      15.440 -16.825  -3.721  1.00  0.00     0.161 A 
BRANCH  20  25
ATOM     25 C14  MOL A   1      17.512 -16.961  -6.952  1.00  0.00     0.028 C 
BRANCH  25  26
ATOM     26 N15  MOL A   1      17.083 -17.966  -7.946  1.00  0.00    -0.287 NA
ATOM     27 C16  MOL A   1      18.237 -18.603  -8.604  1.00  0.00     0.064 C 
ATOM     28 C17  MOL A   1      17.892 -18.002  -9.953  1.00  0.00     0.272 C 
ATOM     29 F18  MOL A   1      17.509 -18.938 -10.897  1.00  0.00    -0.204 F 
ATOM     30 F19  MOL A   1      18.829 -17.091 -10.413  1.00  0.00    -0.204 F 
ATOM     31 C20  MOL A   1      16.724 -17.353  -9.236  1.00  0.00     0.064 C 
ENDBRANCH  25  26
ENDBRANCH  20  25
BRANCH  24  32
ATOM     32 O25  MOL A   1      14.474 -15.987  -3.146  1.00  0.00    -0.493 OA
ATOM     33 C26  MOL A   1      14.602 -15.364  -1.873  1.00  0.00     0.078 C 
ENDBRANCH  24  32
ENDBRANCH  18  19
ENDBRANCH  17  18
ENDBRANCH  15  17
ENDBRANCH   8  14
ENDBRANCH   1   8
TORSDOF 10
ENDMDL
MODEL 368
REMARK VINA RESULT:    -7.062      8.092     12.366
REMARK INTER + INTRA:         -12.240
REMARK INTER:                 -10.122
REMARK INTRA:                  -2.117
REMARK UNBOUND:                -1.048
REMARK  10 active torsions:
REMARK  status: ('A' for Active; 'I' for Inactive)
REMARK   1   A    between atoms:  C27_1   and   C6_8  
REMARK   2   A    between atoms:  C6_8    and   C5_9  
REMARK   3   A    between atoms:  C5_9    and   C3_12 
REMARK   4   A    between atoms:  C6_8    and   N7_14 
REMARK   5   A    between atoms:  C8_15   and  C10_17 
REMARK   6   A    between atoms: C10_17   and  O11_18 
REMARK   7   A    between atoms: O11_18   and  C12_19 
REMARK   8   A    between atoms: C13_20   and  C14_25 
REMARK   9   A    between atoms: C14_25   and  N15_26 
REMARK   10  A    between atoms: C24_24   and  O25_32 
ROOT
ATOM      1 C27  MOL A   1      14.280 -19.198  -7.469  1.00  0.00    -0.024 A 
ATOM      2 C28  MOL A   1      14.580 -19.331  -6.101  1.00  0.00    -0.057 A 
ATOM      3 C29  MOL A   1      15.380 -20.388  -5.651  1.00  0.00    -0.061 A 
ATOM      4 C30  MOL A   1      15.886 -21.320  -6.560  1.00  0.00    -0.048 A 
ATOM      5 C31  MOL A   1      15.598 -21.198  -7.924  1.00  0.00     0.018 A 
ATOM      6 Br32 MOL A   1      16.309 -22.463  -9.171  1.00  0.00    -0.051 Br
ATOM      7 C33  MOL A   1      14.794 -20.146  -8.377  1.00  0.00    -0.043 A 
ENDROOT
BRANCH   1   8
ATOM      8  C6  MOL A   1      13.356 -18.096  -7.938  1.00  0.00     0.063 C 
BRANCH   8   9
ATOM      9  C5  MOL A   1      12.629 -18.528  -9.224  1.00  0.00     0.051 C 
BRANCH   9  12
ATOM     10  C1  MOL A   1       9.084 -20.064  -8.722  1.00  0.00     0.006 C 
ATOM     11  N2  MOL A   1      10.517 -19.923  -8.941  1.00  0.00    -0.359 N 
ATOM     12  C3  MOL A   1      11.147 -18.640  -9.008  1.00  0.00     0.222 C 
ATOM     13  O4  MOL A   1      10.459 -17.590  -8.882  1.00  0.00    -0.275 OA
ENDBRANCH   9  12
ENDBRANCH   8   9
BRANCH   8  14
ATOM     14  N7  MOL A   1      14.113 -16.860  -8.163  1.00  0.00    -0.346 N 
ATOM     15  C8  MOL A   1      14.253 -15.850  -7.161  1.00  0.00     0.258 C 
ATOM     16  O9  MOL A   1      13.709 -15.994  -6.034  1.00  0.00    -0.271 OA
BRANCH  15  17
ATOM     17 C10  MOL A   1      15.060 -14.617  -7.436  1.00  0.00     0.167 C 
BRANCH  17  18
ATOM     18 O11  MOL A   1      16.436 -14.949  -7.608  1.00  0.00    -0.480 OA
BRANCH  18  19
ATOM     19 C12  MOL A   1      17.021 -16.044  -6.966  1.00  0.00     0.166 A 
ATOM     20 C13  MOL A   1      17.371 -17.211  -7.683  1.00  0.00     0.012 A 
ATOM     21 C21  MOL A   1      18.028 -18.256  -7.013  1.00  0.00    -0.054 A 
ATOM     22 C22  MOL A   1      18.290 -18.166  -5.646  1.00  0.00    -0.058 A 
ATOM     23 C23  MOL A   1      17.899 -17.034  -4.930  1.00  0.00    -0.016 A 
ATOM     24 C24  MOL A   1      17.257 -15.966  -5.584  1.00  0.00     0.161 A 
BRANCH  20  25
ATOM     25 C14  MOL A   1      17.055 -17.366  -9.155  1.00  0.00     0.028 C 
BRANCH  25  26
ATOM     26 N15  MOL A   1      18.213 -17.935  -9.874  1.00  0.00    -0.287 NA
ATOM     27 C16  MOL A   1      18.498 -17.193 -11.114  1.00  0.00     0.064 C 
ATOM     28 C17  MOL A   1      18.137 -18.375 -11.991  1.00  0.00     0.272 C 
ATOM     29 F18  MOL A   1      19.213 -18.902 -12.685  1.00  0.00    -0.204 F 
ATOM     30 F19  MOL A   1      17.013 -18.167 -12.772  1.00  0.00    -0.204 F 
ATOM     31 C20  MOL A   1      17.842 -19.101 -10.693  1.00  0.00     0.064 C 
ENDBRANCH  25  26
ENDBRANCH  20  25
BRANCH  24  32
ATOM     32 O25  MOL A   1      16.847 -14.812  -4.900  1.00  0.00    -0.493 OA
ATOM     33 C26  MOL A   1      16.032 -14.814  -3.733  1.00  0.00     0.078 C 
ENDBRANCH  24  32
ENDBRANCH  18  19
ENDBRANCH  17  18
ENDBRANCH  15  17
ENDBRANCH   8  14
ENDBRANCH   1   8
TORSDOF 10
ENDMDL
MODEL 369
REMARK VINA RESULT:    -7.060      4.793      9.083
REMARK INTER + INTRA:         -12.236
REMARK INTER:                 -11.792
REMARK INTRA:                  -0.444
REMARK UNBOUND:                -1.048
REMARK  10 active torsions:
REMARK  status: ('A' for Active; 'I' for Inactive)
REMARK   1   A    between atoms:  C27_1   and   C6_8  
REMARK   2   A    between atoms:  C6_8    and   C5_9  
REMARK   3   A    between atoms:  C5_9    and   C3_12 
REMARK   4   A    between atoms:  C6_8    and   N7_14 
REMARK   5   A    between atoms:  C8_15   and  C10_17 
REMARK   6   A    between atoms: C10_17   and  O11_18 
REMARK   7   A    between atoms: O11_18   and  C12_19 
REMARK   8   A    between atoms: C13_20   and  C14_25 
REMARK   9   A    between atoms: C14_25   and  N15_26 
REMARK   10  A    between atoms: C24_24   and  O25_32 
ROOT
ATOM      1 C27  MOL A   1       5.937 -19.237  -8.314  1.00  0.00    -0.024 A 
ATOM      2 C28  MOL A   1       4.748 -19.458  -7.594  1.00  0.00    -0.057 A 
ATOM      3 C29  MOL A   1       3.978 -20.601  -7.834  1.00  0.00    -0.061 A 
ATOM      4 C30  MOL A   1       4.386 -21.533  -8.793  1.00  0.00    -0.048 A 
ATOM      5 C31  MOL A   1       5.568 -21.327  -9.513  1.00  0.00     0.018 A 
ATOM      6 Br32 MOL A   1       6.137 -22.614 -10.809  1.00  0.00    -0.051 Br
ATOM      7 C33  MOL A   1       6.338 -20.183  -9.280  1.00  0.00    -0.043 A 
ENDROOT
BRANCH   1   8
ATOM      8  C6  MOL A   1       6.726 -17.963  -8.100  1.00  0.00     0.063 C 
BRANCH   8   9
ATOM      9  C5  MOL A   1       5.951 -16.761  -8.669  1.00  0.00     0.051 C 
BRANCH   9  12
ATOM     10  C1  MOL A   1       2.869 -15.170  -6.896  1.00  0.00     0.006 C 
ATOM     11  N2  MOL A   1       3.727 -15.791  -7.895  1.00  0.00    -0.359 N 
ATOM     12  C3  MOL A   1       5.095 -16.112  -7.621  1.00  0.00     0.222 C 
ATOM     13  O4  MOL A   1       5.590 -15.852  -6.490  1.00  0.00    -0.275 OA
ENDBRANCH   9  12
ENDBRANCH   8   9
BRANCH   8  14
ATOM     14  N7  MOL A   1       8.046 -18.071  -8.730  1.00  0.00    -0.346 N 
ATOM     15  C8  MOL A   1       9.123 -17.186  -8.415  1.00  0.00     0.258 C 
ATOM     16  O9  MOL A   1       8.961 -16.262  -7.575  1.00  0.00    -0.271 OA
BRANCH  15  17
ATOM     17 C10  MOL A   1      10.461 -17.358  -9.069  1.00  0.00     0.167 C 
BRANCH  17  18
ATOM     18 O11  MOL A   1      10.748 -18.740  -9.264  1.00  0.00    -0.480 OA
BRANCH  18  19
ATOM     19 C12  MOL A   1      11.565 -19.459  -8.387  1.00  0.00     0.166 A 
ATOM     20 C13  MOL A   1      12.649 -18.839  -7.723  1.00  0.00     0.012 A 
ATOM     21 C21  MOL A   1      13.395 -19.578  -6.790  1.00  0.00    -0.054 A 
ATOM     22 C22  MOL A   1      13.102 -20.922  -6.555  1.00  0.00    -0.058 A 
ATOM     23 C23  MOL A   1      12.065 -21.545  -7.248  1.00  0.00    -0.016 A 
ATOM     24 C24  MOL A   1      11.291 -20.820  -8.173  1.00  0.00     0.161 A 
BRANCH  20  25
ATOM     25 C14  MOL A   1      13.029 -17.400  -7.992  1.00  0.00     0.028 C 
BRANCH  25  26
ATOM     26 N15  MOL A   1      14.334 -17.087  -7.375  1.00  0.00    -0.287 NA
ATOM     27 C16  MOL A   1      14.294 -15.813  -6.637  1.00  0.00     0.064 C 
ATOM     28 C17  MOL A   1      15.263 -15.145  -7.593  1.00  0.00     0.272 C 
ATOM     29 F18  MOL A   1      16.482 -14.830  -7.018  1.00  0.00    -0.204 F 
ATOM     30 F19  MOL A   1      14.702 -14.110  -8.322  1.00  0.00    -0.204 F 
ATOM     31 C20  MOL A   1      15.268 -16.469  -8.332  1.00  0.00     0.064 C 
ENDBRANCH  25  26
ENDBRANCH  20  25
BRANCH  24  32
ATOM     32 O25  MOL A   1      10.240 -21.409  -8.890  1.00  0.00    -0.493 OA
ATOM     33 C26  MOL A   1      10.157 -22.795  -9.204  1.00  0.00     0.078 C 
ENDBRANCH  24  32
ENDBRANCH  18  19
ENDBRANCH  17  18
ENDBRANCH  15  17
ENDBRANCH   8  14
ENDBRANCH   1   8
TORSDOF 10
ENDMDL
MODEL 370
REMARK VINA RESULT:    -7.060      5.424      8.963
REMARK INTER + INTRA:         -12.236
REMARK INTER:                 -10.923
REMARK INTRA:                  -1.312
REMARK UNBOUND:                -1.048
REMARK  10 active torsions:
REMARK  status: ('A' for Active; 'I' for Inactive)
REMARK   1   A    between atoms:  C27_1   and   C6_8  
REMARK   2   A    between atoms:  C6_8    and   C5_9  
REMARK   3   A    between atoms:  C5_9    and   C3_12 
REMARK   4   A    between atoms:  C6_8    and   N7_14 
REMARK   5   A    between atoms:  C8_15   and  C10_17 
REMARK   6   A    between atoms: C10_17   and  O11_18 
REMARK   7   A    between atoms: O11_18   and  C12_19 
REMARK   8   A    between atoms: C13_20   and  C14_25 
REMARK   9   A    between atoms: C14_25   and  N15_26 
REMARK   10  A    between atoms: C24_24   and  O25_32 
ROOT
ATOM      1 C27  MOL A   1      14.398 -16.773  -6.070  1.00  0.00    -0.024 A 
ATOM      2 C28  MOL A   1      13.679 -15.563  -6.071  1.00  0.00    -0.057 A 
ATOM      3 C29  MOL A   1      13.788 -14.675  -4.995  1.00  0.00    -0.061 A 
ATOM      4 C30  MOL A   1      14.613 -14.985  -3.911  1.00  0.00    -0.048 A 
ATOM      5 C31  MOL A   1      15.336 -16.183  -3.899  1.00  0.00     0.018 A 
ATOM      6 Br32 MOL A   1      16.482 -16.596  -2.424  1.00  0.00    -0.051 Br
ATOM      7 C33  MOL A   1      15.225 -17.076  -4.970  1.00  0.00    -0.043 A 
ENDROOT
BRANCH   1   8
ATOM      8  C6  MOL A   1      14.218 -17.761  -7.202  1.00  0.00     0.063 C 
BRANCH   8   9
ATOM      9  C5  MOL A   1      14.856 -17.208  -8.490  1.00  0.00     0.051 C 
BRANCH   9  12
ATOM     10  C1  MOL A   1      18.395 -18.643  -9.257  1.00  0.00     0.006 C 
ATOM     11  N2  MOL A   1      17.319 -17.783  -8.786  1.00  0.00    -0.359 N 
ATOM     12  C3  MOL A   1      15.942 -18.112  -8.998  1.00  0.00     0.222 C 
ATOM     13  O4  MOL A   1      15.632 -19.169  -9.612  1.00  0.00    -0.275 OA
ENDBRANCH   9  12
ENDBRANCH   8   9
BRANCH   8  14
ATOM     14  N7  MOL A   1      12.794 -18.041  -7.411  1.00  0.00    -0.346 N 
ATOM     15  C8  MOL A   1      12.303 -19.350  -7.708  1.00  0.00     0.258 C 
ATOM     16  O9  MOL A   1      13.101 -20.319  -7.812  1.00  0.00    -0.271 OA
BRANCH  15  17
ATOM     17 C10  MOL A   1      10.833 -19.587  -7.887  1.00  0.00     0.167 C 
BRANCH  17  18
ATOM     18 O11  MOL A   1      10.552 -19.993  -9.224  1.00  0.00    -0.480 OA
BRANCH  18  19
ATOM     19 C12  MOL A   1       9.489 -20.846  -9.531  1.00  0.00     0.166 A 
ATOM     20 C13  MOL A   1       8.223 -20.335  -9.898  1.00  0.00     0.012 A 
ATOM     21 C21  MOL A   1       7.206 -21.228 -10.275  1.00  0.00    -0.054 A 
ATOM     22 C22  MOL A   1       7.425 -22.605 -10.244  1.00  0.00    -0.058 A 
ATOM     23 C23  MOL A   1       8.660 -23.109  -9.834  1.00  0.00    -0.016 A 
ATOM     24 C24  MOL A   1       9.700 -22.234  -9.470  1.00  0.00     0.161 A 
BRANCH  20  25
ATOM     25 C14  MOL A   1       7.931 -18.851  -9.892  1.00  0.00     0.028 C 
BRANCH  25  26
ATOM     26 N15  MOL A   1       7.628 -18.389  -8.522  1.00  0.00    -0.287 NA
ATOM     27 C16  MOL A   1       6.177 -18.283  -8.295  1.00  0.00     0.064 C 
ATOM     28 C17  MOL A   1       6.237 -16.776  -8.144  1.00  0.00     0.272 C 
ATOM     29 F18  MOL A   1       5.934 -16.333  -6.869  1.00  0.00    -0.204 F 
ATOM     30 F19  MOL A   1       5.575 -16.089  -9.149  1.00  0.00    -0.204 F 
ATOM     31 C20  MOL A   1       7.724 -16.925  -8.395  1.00  0.00     0.064 C 
ENDBRANCH  25  26
ENDBRANCH  20  25
BRANCH  24  32
ATOM     32 O25  MOL A   1      10.954 -22.700  -9.051  1.00  0.00    -0.493 OA
ATOM     33 C26  MOL A   1      11.193 -23.995  -8.510  1.00  0.00     0.078 C 
ENDBRANCH  24  32
ENDBRANCH  18  19
ENDBRANCH  17  18
ENDBRANCH  15  17
ENDBRANCH   8  14
ENDBRANCH   1   8
TORSDOF 10
ENDMDL
MODEL 371
REMARK VINA RESULT:    -7.056      4.350      8.825
REMARK INTER + INTRA:         -12.230
REMARK INTER:                 -11.766
REMARK INTRA:                  -0.463
REMARK UNBOUND:                -1.048
REMARK  10 active torsions:
REMARK  status: ('A' for Active; 'I' for Inactive)
REMARK   1   A    between atoms:  C27_1   and   C6_8  
REMARK   2   A    between atoms:  C6_8    and   C5_9  
REMARK   3   A    between atoms:  C5_9    and   C3_12 
REMARK   4   A    between atoms:  C6_8    and   N7_14 
REMARK   5   A    between atoms:  C8_15   and  C10_17 
REMARK   6   A    between atoms: C10_17   and  O11_18 
REMARK   7   A    between atoms: O11_18   and  C12_19 
REMARK   8   A    between atoms: C13_20   and  C14_25 
REMARK   9   A    between atoms: C14_25   and  N15_26 
REMARK   10  A    between atoms: C24_24   and  O25_32 
ROOT
ATOM      1 C27  MOL A   1       4.400 -13.521 -11.975  1.00  0.00    -0.024 A 
ATOM      2 C28  MOL A   1       4.849 -13.675 -13.299  1.00  0.00    -0.057 A 
ATOM      3 C29  MOL A   1       4.714 -12.630 -14.219  1.00  0.00    -0.061 A 
ATOM      4 C30  MOL A   1       4.130 -11.422 -13.827  1.00  0.00    -0.048 A 
ATOM      5 C31  MOL A   1       3.682 -11.254 -12.512  1.00  0.00     0.018 A 
ATOM      6 Br32 MOL A   1       2.903  -9.593 -11.970  1.00  0.00    -0.051 Br
ATOM      7 C33  MOL A   1       3.811 -12.299 -11.591  1.00  0.00    -0.043 A 
ENDROOT
BRANCH   1   8
ATOM      8  C6  MOL A   1       4.484 -14.681 -11.007  1.00  0.00     0.063 C 
BRANCH   8   9
ATOM      9  C5  MOL A   1       4.161 -14.201  -9.580  1.00  0.00     0.051 C 
BRANCH   9  12
ATOM     10  C1  MOL A   1       1.228 -15.623  -7.447  1.00  0.00     0.006 C 
ATOM     11  N2  MOL A   1       2.557 -15.223  -7.885  1.00  0.00    -0.359 N 
ATOM     12  C3  MOL A   1       2.779 -14.612  -9.161  1.00  0.00     0.222 C 
ATOM     13  O4  MOL A   1       1.810 -14.411  -9.943  1.00  0.00    -0.275 OA
ENDBRANCH   9  12
ENDBRANCH   8   9
BRANCH   8  14
ATOM     14  N7  MOL A   1       5.818 -15.289 -11.057  1.00  0.00    -0.346 N 
ATOM     15  C8  MOL A   1       6.309 -16.152 -10.029  1.00  0.00     0.258 C 
ATOM     16  O9  MOL A   1       5.596 -16.410  -9.023  1.00  0.00    -0.271 OA
BRANCH  15  17
ATOM     17 C10  MOL A   1       7.670 -16.769 -10.143  1.00  0.00     0.167 C 
BRANCH  17  18
ATOM     18 O11  MOL A   1       7.971 -17.533  -8.977  1.00  0.00    -0.480 OA
BRANCH  18  19
ATOM     19 C12  MOL A   1       8.454 -18.842  -9.052  1.00  0.00     0.166 A 
ATOM     20 C13  MOL A   1       7.582 -19.950  -8.954  1.00  0.00     0.012 A 
ATOM     21 C21  MOL A   1       8.099 -21.246  -9.115  1.00  0.00    -0.054 A 
ATOM     22 C22  MOL A   1       9.465 -21.442  -9.320  1.00  0.00    -0.058 A 
ATOM     23 C23  MOL A   1      10.331 -20.350  -9.366  1.00  0.00    -0.016 A 
ATOM     24 C24  MOL A   1       9.833 -19.041  -9.228  1.00  0.00     0.161 A 
BRANCH  20  25
ATOM     25 C14  MOL A   1       6.104 -19.779  -8.679  1.00  0.00     0.028 C 
BRANCH  25  26
ATOM     26 N15  MOL A   1       5.521 -21.044  -8.188  1.00  0.00    -0.287 NA
ATOM     27 C16  MOL A   1       4.275 -21.377  -8.899  1.00  0.00     0.064 C 
ATOM     28 C17  MOL A   1       3.431 -21.203  -7.652  1.00  0.00     0.272 C 
ATOM     29 F18  MOL A   1       2.863 -22.380  -7.196  1.00  0.00    -0.204 F 
ATOM     30 F19  MOL A   1       2.542 -20.142  -7.724  1.00  0.00    -0.204 F 
ATOM     31 C20  MOL A   1       4.733 -20.852  -6.959  1.00  0.00     0.064 C 
ENDBRANCH  25  26
ENDBRANCH  20  25
BRANCH  24  32
ATOM     32 O25  MOL A   1      10.670 -17.917  -9.268  1.00  0.00    -0.493 OA
ATOM     33 C26  MOL A   1      12.089 -17.972  -9.370  1.00  0.00     0.078 C 
ENDBRANCH  24  32
ENDBRANCH  18  19
ENDBRANCH  17  18
ENDBRANCH  15  17
ENDBRANCH   8  14
ENDBRANCH   1   8
TORSDOF 10
ENDMDL
MODEL 372
REMARK VINA RESULT:    -7.055     10.261     13.582
REMARK INTER + INTRA:         -12.228
REMARK INTER:                 -10.226
REMARK INTRA:                  -2.003
REMARK UNBOUND:                -1.048
REMARK  10 active torsions:
REMARK  status: ('A' for Active; 'I' for Inactive)
REMARK   1   A    between atoms:  C27_1   and   C6_8  
REMARK   2   A    between atoms:  C6_8    and   C5_9  
REMARK   3   A    between atoms:  C5_9    and   C3_12 
REMARK   4   A    between atoms:  C6_8    and   N7_14 
REMARK   5   A    between atoms:  C8_15   and  C10_17 
REMARK   6   A    between atoms: C10_17   and  O11_18 
REMARK   7   A    between atoms: O11_18   and  C12_19 
REMARK   8   A    between atoms: C13_20   and  C14_25 
REMARK   9   A    between atoms: C14_25   and  N15_26 
REMARK   10  A    between atoms: C24_24   and  O25_32 
ROOT
ATOM      1 C27  MOL A   1      17.500 -19.216  -7.496  1.00  0.00    -0.024 A 
ATOM      2 C28  MOL A   1      18.297 -20.050  -6.691  1.00  0.00    -0.057 A 
ATOM      3 C29  MOL A   1      19.572 -20.437  -7.117  1.00  0.00    -0.061 A 
ATOM      4 C30  MOL A   1      20.062 -19.997  -8.350  1.00  0.00    -0.048 A 
ATOM      5 C31  MOL A   1      19.281 -19.165  -9.159  1.00  0.00     0.018 A 
ATOM      6 Br32 MOL A   1      19.962 -18.546 -10.836  1.00  0.00    -0.051 Br
ATOM      7 C33  MOL A   1      18.004 -18.780  -8.738  1.00  0.00    -0.043 A 
ENDROOT
BRANCH   1   8
ATOM      8  C6  MOL A   1      16.095 -18.861  -7.061  1.00  0.00     0.063 C 
BRANCH   8   9
ATOM      9  C5  MOL A   1      15.765 -17.415  -7.471  1.00  0.00     0.051 C 
BRANCH   9  12
ATOM     10  C1  MOL A   1      12.494 -15.564  -6.445  1.00  0.00     0.006 C 
ATOM     11  N2  MOL A   1      13.899 -15.895  -6.636  1.00  0.00    -0.359 N 
ATOM     12  C3  MOL A   1      14.308 -17.107  -7.280  1.00  0.00     0.222 C 
ATOM     13  O4  MOL A   1      13.443 -17.925  -7.696  1.00  0.00    -0.275 OA
ENDBRANCH   9  12
ENDBRANCH   8   9
BRANCH   8  14
ATOM     14  N7  MOL A   1      15.954 -19.032  -5.610  1.00  0.00    -0.346 N 
ATOM     15  C8  MOL A   1      14.989 -19.912  -5.030  1.00  0.00     0.258 C 
ATOM     16  O9  MOL A   1      14.209 -20.573  -5.765  1.00  0.00    -0.271 OA
BRANCH  15  17
ATOM     17 C10  MOL A   1      14.905 -20.069  -3.541  1.00  0.00     0.167 C 
BRANCH  17  18
ATOM     18 O11  MOL A   1      15.740 -19.114  -2.891  1.00  0.00    -0.480 OA
BRANCH  18  19
ATOM     19 C12  MOL A   1      15.233 -18.186  -1.977  1.00  0.00     0.166 A 
ATOM     20 C13  MOL A   1      15.028 -16.836  -2.343  1.00  0.00     0.012 A 
ATOM     21 C21  MOL A   1      14.442 -15.957  -1.417  1.00  0.00    -0.054 A 
ATOM     22 C22  MOL A   1      14.112 -16.395  -0.134  1.00  0.00    -0.058 A 
ATOM     23 C23  MOL A   1      14.362 -17.715   0.241  1.00  0.00    -0.016 A 
ATOM     24 C24  MOL A   1      14.929 -18.620  -0.676  1.00  0.00     0.161 A 
BRANCH  20  25
ATOM     25 C14  MOL A   1      15.422 -16.311  -3.705  1.00  0.00     0.028 C 
BRANCH  25  26
ATOM     26 N15  MOL A   1      16.534 -15.346  -3.584  1.00  0.00    -0.287 NA
ATOM     27 C16  MOL A   1      17.261 -15.194  -4.856  1.00  0.00     0.064 C 
ATOM     28 C17  MOL A   1      18.526 -15.808  -4.291  1.00  0.00     0.272 C 
ATOM     29 F18  MOL A   1      19.580 -14.916  -4.193  1.00  0.00    -0.204 F 
ATOM     30 F19  MOL A   1      18.867 -17.018  -4.874  1.00  0.00    -0.204 F 
ATOM     31 C20  MOL A   1      17.741 -15.959  -3.003  1.00  0.00     0.064 C 
ENDBRANCH  25  26
ENDBRANCH  20  25
BRANCH  24  32
ATOM     32 O25  MOL A   1      15.198 -19.954  -0.338  1.00  0.00    -0.493 OA
ATOM     33 C26  MOL A   1      15.966 -20.361   0.790  1.00  0.00     0.078 C 
ENDBRANCH  24  32
ENDBRANCH  18  19
ENDBRANCH  17  18
ENDBRANCH  15  17
ENDBRANCH   8  14
ENDBRANCH   1   8
TORSDOF 10
ENDMDL
MODEL 373
REMARK VINA RESULT:    -7.055      8.975     11.575
REMARK INTER + INTRA:         -12.228
REMARK INTER:                 -10.236
REMARK INTRA:                  -1.991
REMARK UNBOUND:                -1.048
REMARK  10 active torsions:
REMARK  status: ('A' for Active; 'I' for Inactive)
REMARK   1   A    between atoms:  C27_1   and   C6_8  
REMARK   2   A    between atoms:  C6_8    and   C5_9  
REMARK   3   A    between atoms:  C5_9    and   C3_12 
REMARK   4   A    between atoms:  C6_8    and   N7_14 
REMARK   5   A    between atoms:  C8_15   and  C10_17 
REMARK   6   A    between atoms: C10_17   and  O11_18 
REMARK   7   A    between atoms: O11_18   and  C12_19 
REMARK   8   A    between atoms: C13_20   and  C14_25 
REMARK   9   A    between atoms: C14_25   and  N15_26 
REMARK   10  A    between atoms: C24_24   and  O25_32 
ROOT
ATOM      1 C27  MOL A   1      12.540 -19.419  -7.485  1.00  0.00    -0.024 A 
ATOM      2 C28  MOL A   1      12.554 -18.017  -7.371  1.00  0.00    -0.057 A 
ATOM      3 C29  MOL A   1      11.652 -17.239  -8.105  1.00  0.00    -0.061 A 
ATOM      4 C30  MOL A   1      10.730 -17.851  -8.959  1.00  0.00    -0.048 A 
ATOM      5 C31  MOL A   1      10.704 -19.245  -9.079  1.00  0.00     0.018 A 
ATOM      6 Br32 MOL A   1       9.427 -20.084 -10.230  1.00  0.00    -0.051 Br
ATOM      7 C33  MOL A   1      11.607 -20.026  -8.350  1.00  0.00    -0.043 A 
ENDROOT
BRANCH   1   8
ATOM      8  C6  MOL A   1      13.566 -20.249  -6.744  1.00  0.00     0.063 C 
BRANCH   8   9
ATOM      9  C5  MOL A   1      12.874 -21.413  -6.012  1.00  0.00     0.051 C 
BRANCH   9  12
ATOM     10  C1  MOL A   1      12.811 -24.850  -7.845  1.00  0.00     0.006 C 
ATOM     11  N2  MOL A   1      12.410 -23.561  -7.301  1.00  0.00    -0.359 N 
ATOM     12  C3  MOL A   1      13.315 -22.743  -6.552  1.00  0.00     0.222 C 
ATOM     13  O4  MOL A   1      14.496 -23.135  -6.343  1.00  0.00    -0.275 OA
ENDBRANCH   9  12
ENDBRANCH   8   9
BRANCH   8  14
ATOM     14  N7  MOL A   1      14.308 -19.412  -5.795  1.00  0.00    -0.346 N 
ATOM     15  C8  MOL A   1      15.734 -19.330  -5.793  1.00  0.00     0.258 C 
ATOM     16  O9  MOL A   1      16.410 -20.000  -6.619  1.00  0.00    -0.271 OA
BRANCH  15  17
ATOM     17 C10  MOL A   1      16.442 -18.438  -4.818  1.00  0.00     0.167 C 
BRANCH  17  18
ATOM     18 O11  MOL A   1      16.885 -17.246  -5.463  1.00  0.00    -0.480 OA
BRANCH  18  19
ATOM     19 C12  MOL A   1      16.007 -16.407  -6.155  1.00  0.00     0.166 A 
ATOM     20 C13  MOL A   1      15.041 -15.635  -5.470  1.00  0.00     0.012 A 
ATOM     21 C21  MOL A   1      14.232 -14.746  -6.197  1.00  0.00    -0.054 A 
ATOM     22 C22  MOL A   1      14.346 -14.660  -7.585  1.00  0.00    -0.058 A 
ATOM     23 C23  MOL A   1      15.266 -15.459  -8.264  1.00  0.00    -0.016 A 
ATOM     24 C24  MOL A   1      16.100 -16.343  -7.555  1.00  0.00     0.161 A 
BRANCH  20  25
ATOM     25 C14  MOL A   1      14.852 -15.741  -3.973  1.00  0.00     0.028 C 
BRANCH  25  26
ATOM     26 N15  MOL A   1      15.210 -14.467  -3.316  1.00  0.00    -0.287 NA
ATOM     27 C16  MOL A   1      15.901 -14.694  -2.035  1.00  0.00     0.064 C 
ATOM     28 C17  MOL A   1      14.763 -14.094  -1.232  1.00  0.00     0.272 C 
ATOM     29 F18  MOL A   1      15.096 -12.911  -0.596  1.00  0.00    -0.204 F 
ATOM     30 F19  MOL A   1      14.116 -15.007  -0.416  1.00  0.00    -0.204 F 
ATOM     31 C20  MOL A   1      14.079 -13.890  -2.569  1.00  0.00     0.064 C 
ENDBRANCH  25  26
ENDBRANCH  20  25
BRANCH  24  32
ATOM     32 O25  MOL A   1      17.037 -17.164  -8.199  1.00  0.00    -0.493 OA
ATOM     33 C26  MOL A   1      17.510 -16.957  -9.526  1.00  0.00     0.078 C 
ENDBRANCH  24  32
ENDBRANCH  18  19
ENDBRANCH  17  18
ENDBRANCH  15  17
ENDBRANCH   8  14
ENDBRANCH   1   8
TORSDOF 10
ENDMDL
MODEL 374
REMARK VINA RESULT:    -7.054      6.341      9.627
REMARK INTER + INTRA:         -12.227
REMARK INTER:                 -10.801
REMARK INTRA:                  -1.426
REMARK UNBOUND:                -1.048
REMARK  10 active torsions:
REMARK  status: ('A' for Active; 'I' for Inactive)
REMARK   1   A    between atoms:  C27_1   and   C6_8  
REMARK   2   A    between atoms:  C6_8    and   C5_9  
REMARK   3   A    between atoms:  C5_9    and   C3_12 
REMARK   4   A    between atoms:  C6_8    and   N7_14 
REMARK   5   A    between atoms:  C8_15   and  C10_17 
REMARK   6   A    between atoms: C10_17   and  O11_18 
REMARK   7   A    between atoms: O11_18   and  C12_19 
REMARK   8   A    between atoms: C13_20   and  C14_25 
REMARK   9   A    between atoms: C14_25   and  N15_26 
REMARK   10  A    between atoms: C24_24   and  O25_32 
ROOT
ATOM      1 C27  MOL A   1      15.220 -19.394  -5.582  1.00  0.00    -0.024 A 
ATOM      2 C28  MOL A   1      15.805 -20.110  -4.521  1.00  0.00    -0.057 A 
ATOM      3 C29  MOL A   1      16.547 -19.442  -3.541  1.00  0.00    -0.061 A 
ATOM      4 C30  MOL A   1      16.713 -18.056  -3.610  1.00  0.00    -0.048 A 
ATOM      5 C31  MOL A   1      16.134 -17.332  -4.658  1.00  0.00     0.018 A 
ATOM      6 Br32 MOL A   1      16.343 -15.432  -4.739  1.00  0.00    -0.051 Br
ATOM      7 C33  MOL A   1      15.396 -17.996  -5.642  1.00  0.00    -0.043 A 
ENDROOT
BRANCH   1   8
ATOM      8  C6  MOL A   1      14.480 -20.131  -6.677  1.00  0.00     0.063 C 
BRANCH   8   9
ATOM      9  C5  MOL A   1      15.163 -19.883  -8.034  1.00  0.00     0.051 C 
BRANCH   9  12
ATOM     10  C1  MOL A   1      18.022 -21.913  -9.731  1.00  0.00     0.006 C 
ATOM     11  N2  MOL A   1      17.129 -20.828  -9.348  1.00  0.00    -0.359 N 
ATOM     12  C3  MOL A   1      16.060 -21.024  -8.416  1.00  0.00     0.222 C 
ATOM     13  O4  MOL A   1      15.867 -22.161  -7.905  1.00  0.00    -0.275 OA
ENDBRANCH   9  12
ENDBRANCH   8   9
BRANCH   8  14
ATOM     14  N7  MOL A   1      13.077 -19.705  -6.718  1.00  0.00    -0.346 N 
ATOM     15  C8  MOL A   1      11.990 -20.632  -6.669  1.00  0.00     0.258 C 
ATOM     16  O9  MOL A   1      12.213 -21.870  -6.598  1.00  0.00    -0.271 OA
BRANCH  15  17
ATOM     17 C10  MOL A   1      10.574 -20.141  -6.689  1.00  0.00     0.167 C 
BRANCH  17  18
ATOM     18 O11  MOL A   1      10.221 -19.687  -7.994  1.00  0.00    -0.480 OA
BRANCH  18  19
ATOM     19 C12  MOL A   1       9.213 -18.743  -8.202  1.00  0.00     0.166 A 
ATOM     20 C13  MOL A   1       7.862 -19.135  -8.350  1.00  0.00     0.012 A 
ATOM     21 C21  MOL A   1       6.872 -18.146  -8.479  1.00  0.00    -0.054 A 
ATOM     22 C22  MOL A   1       7.219 -16.796  -8.510  1.00  0.00    -0.058 A 
ATOM     23 C23  MOL A   1       8.558 -16.414  -8.415  1.00  0.00    -0.016 A 
ATOM     24 C24  MOL A   1       9.565 -17.384  -8.265  1.00  0.00     0.161 A 
BRANCH  20  25
ATOM     25 C14  MOL A   1       7.454 -20.591  -8.374  1.00  0.00     0.028 C 
BRANCH  25  26
ATOM     26 N15  MOL A   1       6.852 -20.936  -9.678  1.00  0.00    -0.287 NA
ATOM     27 C16  MOL A   1       6.865 -22.390  -9.913  1.00  0.00     0.064 C 
ATOM     28 C17  MOL A   1       7.835 -22.268 -11.071  1.00  0.00     0.272 C 
ATOM     29 F18  MOL A   1       7.286 -22.609 -12.295  1.00  0.00    -0.204 F 
ATOM     30 F19  MOL A   1       9.069 -22.849 -10.828  1.00  0.00    -0.204 F 
ATOM     31 C20  MOL A   1       7.806 -20.778 -10.790  1.00  0.00     0.064 C 
ENDBRANCH  25  26
ENDBRANCH  20  25
BRANCH  24  32
ATOM     32 O25  MOL A   1      10.922 -17.042  -8.167  1.00  0.00    -0.493 OA
ATOM     33 C26  MOL A   1      11.530 -16.486  -7.006  1.00  0.00     0.078 C 
ENDBRANCH  24  32
ENDBRANCH  18  19
ENDBRANCH  17  18
ENDBRANCH  15  17
ENDBRANCH   8  14
ENDBRANCH   1   8
TORSDOF 10
ENDMDL
MODEL 375
REMARK VINA RESULT:    -7.054      5.236      8.733
REMARK INTER + INTRA:         -12.226
REMARK INTER:                 -11.018
REMARK INTRA:                  -1.209
REMARK UNBOUND:                -1.048
REMARK  10 active torsions:
REMARK  status: ('A' for Active; 'I' for Inactive)
REMARK   1   A    between atoms:  C27_1   and   C6_8  
REMARK   2   A    between atoms:  C6_8    and   C5_9  
REMARK   3   A    between atoms:  C5_9    and   C3_12 
REMARK   4   A    between atoms:  C6_8    and   N7_14 
REMARK   5   A    between atoms:  C8_15   and  C10_17 
REMARK   6   A    between atoms: C10_17   and  O11_18 
REMARK   7   A    between atoms: O11_18   and  C12_19 
REMARK   8   A    between atoms: C13_20   and  C14_25 
REMARK   9   A    between atoms: C14_25   and  N15_26 
REMARK   10  A    between atoms: C24_24   and  O25_32 
ROOT
ATOM      1 C27  MOL A   1      14.848 -18.071  -7.402  1.00  0.00    -0.024 A 
ATOM      2 C28  MOL A   1      15.394 -17.253  -8.408  1.00  0.00    -0.057 A 
ATOM      3 C29  MOL A   1      15.918 -15.995  -8.090  1.00  0.00    -0.061 A 
ATOM      4 C30  MOL A   1      15.901 -15.542  -6.769  1.00  0.00    -0.048 A 
ATOM      5 C31  MOL A   1      15.363 -16.347  -5.758  1.00  0.00     0.018 A 
ATOM      6 Br32 MOL A   1      15.361 -15.735  -3.945  1.00  0.00    -0.051 Br
ATOM      7 C33  MOL A   1      14.834 -17.603  -6.072  1.00  0.00    -0.043 A 
ENDROOT
BRANCH   1   8
ATOM      8  C6  MOL A   1      14.218 -19.399  -7.764  1.00  0.00     0.063 C 
BRANCH   8   9
ATOM      9  C5  MOL A   1      14.949 -20.018  -8.970  1.00  0.00     0.051 C 
BRANCH   9  12
ATOM     10  C1  MOL A   1      18.021 -21.935  -7.535  1.00  0.00     0.006 C 
ATOM     11  N2  MOL A   1      17.128 -20.867  -7.962  1.00  0.00    -0.359 N 
ATOM     12  C3  MOL A   1      15.851 -21.141  -8.549  1.00  0.00     0.222 C 
ATOM     13  O4  MOL A   1      15.474 -22.333  -8.714  1.00  0.00    -0.275 OA
ENDBRANCH   9  12
ENDBRANCH   8   9
BRANCH   8  14
ATOM     14  N7  MOL A   1      12.792 -19.221  -8.060  1.00  0.00    -0.346 N 
ATOM     15  C8  MOL A   1      11.791 -20.126  -7.591  1.00  0.00     0.258 C 
ATOM     16  O9  MOL A   1      12.114 -21.131  -6.903  1.00  0.00    -0.271 OA
BRANCH  15  17
ATOM     17 C10  MOL A   1      10.344 -19.883  -7.901  1.00  0.00     0.167 C 
BRANCH  17  18
ATOM     18 O11  MOL A   1      10.101 -20.034  -9.298  1.00  0.00    -0.480 OA
BRANCH  18  19
ATOM     19 C12  MOL A   1       8.958 -20.673  -9.786  1.00  0.00     0.166 A 
ATOM     20 C13  MOL A   1       7.804 -19.938 -10.140  1.00  0.00     0.012 A 
ATOM     21 C21  MOL A   1       6.707 -20.612 -10.702  1.00  0.00    -0.054 A 
ATOM     22 C22  MOL A   1       6.735 -21.997 -10.864  1.00  0.00    -0.058 A 
ATOM     23 C23  MOL A   1       7.856 -22.727 -10.468  1.00  0.00    -0.016 A 
ATOM     24 C24  MOL A   1       8.975 -22.071  -9.922  1.00  0.00     0.161 A 
BRANCH  20  25
ATOM     25 C14  MOL A   1       7.716 -18.442  -9.929  1.00  0.00     0.028 C 
BRANCH  25  26
ATOM     26 N15  MOL A   1       7.439 -18.137  -8.510  1.00  0.00    -0.287 NA
ATOM     27 C16  MOL A   1       5.994 -18.145  -8.227  1.00  0.00     0.064 C 
ATOM     28 C17  MOL A   1       5.970 -16.659  -7.929  1.00  0.00     0.272 C 
ATOM     29 F18  MOL A   1       5.690 -16.362  -6.606  1.00  0.00    -0.204 F 
ATOM     30 F19  MOL A   1       5.231 -15.919  -8.838  1.00  0.00    -0.204 F 
ATOM     31 C20  MOL A   1       7.453 -16.689  -8.241  1.00  0.00     0.064 C 
ENDBRANCH  25  26
ENDBRANCH  20  25
BRANCH  24  32
ATOM     32 O25  MOL A   1      10.120 -22.768  -9.510  1.00  0.00    -0.493 OA
ATOM     33 C26  MOL A   1      10.191 -24.181  -9.353  1.00  0.00     0.078 C 
ENDBRANCH  24  32
ENDBRANCH  18  19
ENDBRANCH  17  18
ENDBRANCH  15  17
ENDBRANCH   8  14
ENDBRANCH   1   8
TORSDOF 10
ENDMDL
MODEL 376
REMARK VINA RESULT:    -7.051      6.293     10.352
REMARK INTER + INTRA:         -12.222
REMARK INTER:                 -11.486
REMARK INTRA:                  -0.735
REMARK UNBOUND:                -1.048
REMARK  10 active torsions:
REMARK  status: ('A' for Active; 'I' for Inactive)
REMARK   1   A    between atoms:  C27_1   and   C6_8  
REMARK   2   A    between atoms:  C6_8    and   C5_9  
REMARK   3   A    between atoms:  C5_9    and   C3_12 
REMARK   4   A    between atoms:  C6_8    and   N7_14 
REMARK   5   A    between atoms:  C8_15   and  C10_17 
REMARK   6   A    between atoms: C10_17   and  O11_18 
REMARK   7   A    between atoms: O11_18   and  C12_19 
REMARK   8   A    between atoms: C13_20   and  C14_25 
REMARK   9   A    between atoms: C14_25   and  N15_26 
REMARK   10  A    between atoms: C24_24   and  O25_32 
ROOT
ATOM      1 C27  MOL A   1       7.146 -18.876  -9.547  1.00  0.00    -0.024 A 
ATOM      2 C28  MOL A   1       7.456 -18.032 -10.629  1.00  0.00    -0.057 A 
ATOM      3 C29  MOL A   1       7.076 -16.685 -10.608  1.00  0.00    -0.061 A 
ATOM      4 C30  MOL A   1       6.383 -16.170  -9.509  1.00  0.00    -0.048 A 
ATOM      5 C31  MOL A   1       6.072 -16.997  -8.425  1.00  0.00     0.018 A 
ATOM      6 Br32 MOL A   1       5.143 -16.285  -6.912  1.00  0.00    -0.051 Br
ATOM      7 C33  MOL A   1       6.446 -18.345  -8.445  1.00  0.00    -0.043 A 
ENDROOT
BRANCH   1   8
ATOM      8  C6  MOL A   1       7.497 -20.346  -9.610  1.00  0.00     0.063 C 
BRANCH   8   9
ATOM      9  C5  MOL A   1       6.937 -21.075  -8.375  1.00  0.00     0.051 C 
BRANCH   9  12
ATOM     10  C1  MOL A   1       3.715 -22.325 -10.171  1.00  0.00     0.006 C 
ATOM     11  N2  MOL A   1       5.072 -21.863  -9.920  1.00  0.00    -0.359 N 
ATOM     12  C3  MOL A   1       5.527 -21.539  -8.602  1.00  0.00     0.222 C 
ATOM     13  O4  MOL A   1       4.744 -21.645  -7.619  1.00  0.00    -0.275 OA
ENDBRANCH   9  12
ENDBRANCH   8   9
BRANCH   8  14
ATOM     14  N7  MOL A   1       8.951 -20.519  -9.695  1.00  0.00    -0.346 N 
ATOM     15  C8  MOL A   1       9.809 -20.388  -8.560  1.00  0.00     0.258 C 
ATOM     16  O9  MOL A   1       9.330 -20.104  -7.430  1.00  0.00    -0.271 OA
BRANCH  15  17
ATOM     17 C10  MOL A   1      11.287 -20.600  -8.697  1.00  0.00     0.167 C 
BRANCH  17  18
ATOM     18 O11  MOL A   1      11.910 -19.437  -9.237  1.00  0.00    -0.480 OA
BRANCH  18  19
ATOM     19 C12  MOL A   1      12.591 -18.520  -8.432  1.00  0.00     0.166 A 
ATOM     20 C13  MOL A   1      13.965 -18.682  -8.139  1.00  0.00     0.012 A 
ATOM     21 C21  MOL A   1      14.627 -17.694  -7.391  1.00  0.00    -0.054 A 
ATOM     22 C22  MOL A   1      13.930 -16.590  -6.902  1.00  0.00    -0.058 A 
ATOM     23 C23  MOL A   1      12.564 -16.457  -7.150  1.00  0.00    -0.016 A 
ATOM     24 C24  MOL A   1      11.882 -17.424  -7.913  1.00  0.00     0.161 A 
BRANCH  20  25
ATOM     25 C14  MOL A   1      14.741 -19.893  -8.607  1.00  0.00     0.028 C 
BRANCH  25  26
ATOM     26 N15  MOL A   1      15.279 -20.639  -7.451  1.00  0.00    -0.287 NA
ATOM     27 C16  MOL A   1      15.772 -21.969  -7.848  1.00  0.00     0.064 C 
ATOM     28 C17  MOL A   1      14.702 -22.685  -7.047  1.00  0.00     0.272 C 
ATOM     29 F18  MOL A   1      15.199 -23.405  -5.974  1.00  0.00    -0.204 F 
ATOM     30 F19  MOL A   1      13.801 -23.391  -7.827  1.00  0.00    -0.204 F 
ATOM     31 C20  MOL A   1      14.217 -21.298  -6.673  1.00  0.00     0.064 C 
ENDBRANCH  25  26
ENDBRANCH  20  25
BRANCH  24  32
ATOM     32 O25  MOL A   1      10.510 -17.328  -8.184  1.00  0.00    -0.493 OA
ATOM     33 C26  MOL A   1       9.640 -16.362  -7.604  1.00  0.00     0.078 C 
ENDBRANCH  24  32
ENDBRANCH  18  19
ENDBRANCH  17  18
ENDBRANCH  15  17
ENDBRANCH   8  14
ENDBRANCH   1   8
TORSDOF 10
ENDMDL
MODEL 377
REMARK VINA RESULT:    -7.051      5.722      9.483
REMARK INTER + INTRA:         -12.221
REMARK INTER:                 -10.998
REMARK INTRA:                  -1.223
REMARK UNBOUND:                -1.048
REMARK  10 active torsions:
REMARK  status: ('A' for Active; 'I' for Inactive)
REMARK   1   A    between atoms:  C27_1   and   C6_8  
REMARK   2   A    between atoms:  C6_8    and   C5_9  
REMARK   3   A    between atoms:  C5_9    and   C3_12 
REMARK   4   A    between atoms:  C6_8    and   N7_14 
REMARK   5   A    between atoms:  C8_15   and  C10_17 
REMARK   6   A    between atoms: C10_17   and  O11_18 
REMARK   7   A    between atoms: O11_18   and  C12_19 
REMARK   8   A    between atoms: C13_20   and  C14_25 
REMARK   9   A    between atoms: C14_25   and  N15_26 
REMARK   10  A    between atoms: C24_24   and  O25_32 
ROOT
ATOM      1 C27  MOL A   1      16.876 -18.092  -8.795  1.00  0.00    -0.024 A 
ATOM      2 C28  MOL A   1      17.731 -19.145  -8.423  1.00  0.00    -0.057 A 
ATOM      3 C29  MOL A   1      18.936 -19.352  -9.104  1.00  0.00    -0.061 A 
ATOM      4 C30  MOL A   1      19.298 -18.511 -10.160  1.00  0.00    -0.048 A 
ATOM      5 C31  MOL A   1      18.458 -17.458 -10.537  1.00  0.00     0.018 A 
ATOM      6 Br32 MOL A   1      18.964 -16.294 -11.969  1.00  0.00    -0.051 Br
ATOM      7 C33  MOL A   1      17.250 -17.252  -9.863  1.00  0.00    -0.043 A 
ENDROOT
BRANCH   1   8
ATOM      8  C6  MOL A   1      15.541 -17.920  -8.102  1.00  0.00     0.063 C 
BRANCH   8   9
ATOM      9  C5  MOL A   1      15.561 -18.631  -6.737  1.00  0.00     0.051 C 
BRANCH   9  12
ATOM     10  C1  MOL A   1      15.514 -15.263  -4.780  1.00  0.00     0.006 C 
ATOM     11  N2  MOL A   1      15.581 -16.241  -5.856  1.00  0.00    -0.359 N 
ATOM     12  C3  MOL A   1      15.499 -17.648  -5.603  1.00  0.00     0.222 C 
ATOM     13  O4  MOL A   1      15.370 -18.072  -4.422  1.00  0.00    -0.275 OA
ENDBRANCH   9  12
ENDBRANCH   8   9
BRANCH   8  14
ATOM     14  N7  MOL A   1      14.461 -18.447  -8.943  1.00  0.00    -0.346 N 
ATOM     15  C8  MOL A   1      13.119 -17.960  -8.865  1.00  0.00     0.258 C 
ATOM     16  O9  MOL A   1      12.820 -17.051  -8.046  1.00  0.00    -0.271 OA
BRANCH  15  17
ATOM     17 C10  MOL A   1      12.058 -18.515  -9.767  1.00  0.00     0.167 C 
BRANCH  17  18
ATOM     18 O11  MOL A   1      10.931 -18.944  -9.006  1.00  0.00    -0.480 OA
BRANCH  18  19
ATOM     19 C12  MOL A   1      10.127 -20.014  -9.410  1.00  0.00     0.166 A 
ATOM     20 C13  MOL A   1       9.014 -19.812 -10.257  1.00  0.00     0.012 A 
ATOM     21 C21  MOL A   1       8.281 -20.924 -10.703  1.00  0.00    -0.054 A 
ATOM     22 C22  MOL A   1       8.616 -22.210 -10.276  1.00  0.00    -0.058 A 
ATOM     23 C23  MOL A   1       9.684 -22.402  -9.400  1.00  0.00    -0.016 A 
ATOM     24 C24  MOL A   1      10.445 -21.304  -8.956  1.00  0.00     0.161 A 
BRANCH  20  25
ATOM     25 C14  MOL A   1       8.588 -18.429 -10.698  1.00  0.00     0.028 C 
BRANCH  25  26
ATOM     26 N15  MOL A   1       7.342 -18.030 -10.012  1.00  0.00    -0.287 NA
ATOM     27 C16  MOL A   1       7.269 -16.571  -9.826  1.00  0.00     0.064 C 
ATOM     28 C17  MOL A   1       7.354 -16.685  -8.316  1.00  0.00     0.272 C 
ATOM     29 F18  MOL A   1       6.198 -16.294  -7.664  1.00  0.00    -0.204 F 
ATOM     30 F19  MOL A   1       8.512 -16.145  -7.780  1.00  0.00    -0.204 F 
ATOM     31 C20  MOL A   1       7.440 -18.181  -8.550  1.00  0.00     0.064 C 
ENDBRANCH  25  26
ENDBRANCH  20  25
BRANCH  24  32
ATOM     32 O25  MOL A   1      11.526 -21.454  -8.074  1.00  0.00    -0.493 OA
ATOM     33 C26  MOL A   1      12.284 -22.650  -7.926  1.00  0.00     0.078 C 
ENDBRANCH  24  32
ENDBRANCH  18  19
ENDBRANCH  17  18
ENDBRANCH  15  17
ENDBRANCH   8  14
ENDBRANCH   1   8
TORSDOF 10
ENDMDL
MODEL 378
REMARK VINA RESULT:    -7.051      2.687      4.010
REMARK INTER + INTRA:         -12.221
REMARK INTER:                 -12.241
REMARK INTRA:                   0.020
REMARK UNBOUND:                -1.048
REMARK  10 active torsions:
REMARK  status: ('A' for Active; 'I' for Inactive)
REMARK   1   A    between atoms:  C27_1   and   C6_8  
REMARK   2   A    between atoms:  C6_8    and   C5_9  
REMARK   3   A    between atoms:  C5_9    and   C3_12 
REMARK   4   A    between atoms:  C6_8    and   N7_14 
REMARK   5   A    between atoms:  C8_15   and  C10_17 
REMARK   6   A    between atoms: C10_17   and  O11_18 
REMARK   7   A    between atoms: O11_18   and  C12_19 
REMARK   8   A    between atoms: C13_20   and  C14_25 
REMARK   9   A    between atoms: C14_25   and  N15_26 
REMARK   10  A    between atoms: C24_24   and  O25_32 
ROOT
ATOM      1 C27  MOL A   1       8.849 -19.522  -9.309  1.00  0.00    -0.024 A 
ATOM      2 C28  MOL A   1       9.186 -19.096 -10.606  1.00  0.00    -0.057 A 
ATOM      3 C29  MOL A   1      10.520 -18.846 -10.945  1.00  0.00    -0.061 A 
ATOM      4 C30  MOL A   1      11.529 -19.019  -9.994  1.00  0.00    -0.048 A 
ATOM      5 C31  MOL A   1      11.209 -19.446  -8.701  1.00  0.00     0.018 A 
ATOM      6 Br32 MOL A   1      12.593 -19.703  -7.406  1.00  0.00    -0.051 Br
ATOM      7 C33  MOL A   1       9.875 -19.691  -8.357  1.00  0.00    -0.043 A 
ENDROOT
BRANCH   1   8
ATOM      8  C6  MOL A   1       7.397 -19.719  -8.929  1.00  0.00     0.063 C 
BRANCH   8   9
ATOM      9  C5  MOL A   1       6.905 -21.091  -9.424  1.00  0.00     0.051 C 
BRANCH   9  12
ATOM     10  C1  MOL A   1       4.047 -21.803  -6.874  1.00  0.00     0.006 C 
ATOM     11  N2  MOL A   1       5.348 -21.491  -7.448  1.00  0.00    -0.359 N 
ATOM     12  C3  MOL A   1       5.553 -21.426  -8.863  1.00  0.00     0.222 C 
ATOM     13  O4  MOL A   1       4.593 -21.646  -9.652  1.00  0.00    -0.275 OA
ENDBRANCH   9  12
ENDBRANCH   8   9
BRANCH   8  14
ATOM     14  N7  MOL A   1       6.575 -18.642  -9.490  1.00  0.00    -0.346 N 
ATOM     15  C8  MOL A   1       6.739 -17.273  -9.114  1.00  0.00     0.258 C 
ATOM     16  O9  MOL A   1       7.608 -16.948  -8.262  1.00  0.00    -0.271 OA
BRANCH  15  17
ATOM     17 C10  MOL A   1       5.888 -16.208  -9.738  1.00  0.00     0.167 C 
BRANCH  17  18
ATOM     18 O11  MOL A   1       5.293 -15.391  -8.732  1.00  0.00    -0.480 OA
BRANCH  18  19
ATOM     19 C12  MOL A   1       3.929 -15.088  -8.734  1.00  0.00     0.166 A 
ATOM     20 C13  MOL A   1       3.330 -14.418  -9.825  1.00  0.00     0.012 A 
ATOM     21 C21  MOL A   1       1.942 -14.204  -9.820  1.00  0.00    -0.054 A 
ATOM     22 C22  MOL A   1       1.168 -14.604  -8.730  1.00  0.00    -0.058 A 
ATOM     23 C23  MOL A   1       1.769 -15.220  -7.632  1.00  0.00    -0.016 A 
ATOM     24 C24  MOL A   1       3.155 -15.463  -7.623  1.00  0.00     0.161 A 
BRANCH  20  25
ATOM     25 C14  MOL A   1       4.144 -13.923 -11.000  1.00  0.00     0.028 C 
BRANCH  25  26
ATOM     26 N15  MOL A   1       3.375 -12.930 -11.778  1.00  0.00    -0.287 NA
ATOM     27 C16  MOL A   1       3.365 -13.259 -13.214  1.00  0.00     0.064 C 
ATOM     28 C17  MOL A   1       4.171 -12.028 -13.577  1.00  0.00     0.272 C 
ATOM     29 F18  MOL A   1       3.465 -11.101 -14.324  1.00  0.00    -0.204 F 
ATOM     30 F19  MOL A   1       5.429 -12.314 -14.081  1.00  0.00    -0.204 F 
ATOM     31 C20  MOL A   1       4.172 -11.731 -12.090  1.00  0.00     0.064 C 
ENDBRANCH  25  26
ENDBRANCH  20  25
BRANCH  24  32
ATOM     32 O25  MOL A   1       3.798 -16.078  -6.539  1.00  0.00    -0.493 OA
ATOM     33 C26  MOL A   1       4.591 -17.257  -6.636  1.00  0.00     0.078 C 
ENDBRANCH  24  32
ENDBRANCH  18  19
ENDBRANCH  17  18
ENDBRANCH  15  17
ENDBRANCH   8  14
ENDBRANCH   1   8
TORSDOF 10
ENDMDL
MODEL 379
REMARK VINA RESULT:    -7.048      6.765     11.831
REMARK INTER + INTRA:         -12.217
REMARK INTER:                 -10.246
REMARK INTRA:                  -1.971
REMARK UNBOUND:                -1.048
REMARK  10 active torsions:
REMARK  status: ('A' for Active; 'I' for Inactive)
REMARK   1   A    between atoms:  C27_1   and   C6_8  
REMARK   2   A    between atoms:  C6_8    and   C5_9  
REMARK   3   A    between atoms:  C5_9    and   C3_12 
REMARK   4   A    between atoms:  C6_8    and   N7_14 
REMARK   5   A    between atoms:  C8_15   and  C10_17 
REMARK   6   A    between atoms: C10_17   and  O11_18 
REMARK   7   A    between atoms: O11_18   and  C12_19 
REMARK   8   A    between atoms: C13_20   and  C14_25 
REMARK   9   A    between atoms: C14_25   and  N15_26 
REMARK   10  A    between atoms: C24_24   and  O25_32 
ROOT
ATOM      1 C27  MOL A   1      13.650 -19.875  -7.346  1.00  0.00    -0.024 A 
ATOM      2 C28  MOL A   1      14.330 -20.109  -6.137  1.00  0.00    -0.057 A 
ATOM      3 C29  MOL A   1      14.309 -21.378  -5.548  1.00  0.00    -0.061 A 
ATOM      4 C30  MOL A   1      13.610 -22.423  -6.158  1.00  0.00    -0.048 A 
ATOM      5 C31  MOL A   1      12.932 -22.204  -7.362  1.00  0.00     0.018 A 
ATOM      6 Br32 MOL A   1      11.994 -23.641  -8.208  1.00  0.00    -0.051 Br
ATOM      7 C33  MOL A   1      12.946 -20.936  -7.951  1.00  0.00    -0.043 A 
ENDROOT
BRANCH   1   8
ATOM      8  C6  MOL A   1      13.617 -18.482  -7.939  1.00  0.00     0.063 C 
BRANCH   8   9
ATOM      9  C5  MOL A   1      12.641 -18.439  -9.129  1.00  0.00     0.051 C 
BRANCH   9  12
ATOM     10  C1  MOL A   1       8.868 -17.473  -9.168  1.00  0.00     0.006 C 
ATOM     11  N2  MOL A   1      10.154 -18.058  -9.520  1.00  0.00    -0.359 N 
ATOM     12  C3  MOL A   1      11.332 -17.813  -8.745  1.00  0.00     0.222 C 
ATOM     13  O4  MOL A   1      11.277 -17.068  -7.729  1.00  0.00    -0.275 OA
ENDBRANCH   9  12
ENDBRANCH   8   9
BRANCH   8  14
ATOM     14  N7  MOL A   1      14.962 -18.077  -8.359  1.00  0.00    -0.346 N 
ATOM     15  C8  MOL A   1      15.421 -16.726  -8.271  1.00  0.00     0.258 C 
ATOM     16  O9  MOL A   1      14.660 -15.824  -7.829  1.00  0.00    -0.271 OA
BRANCH  15  17
ATOM     17 C10  MOL A   1      16.816 -16.370  -8.690  1.00  0.00     0.167 C 
BRANCH  17  18
ATOM     18 O11  MOL A   1      17.658 -16.227  -7.549  1.00  0.00    -0.480 OA
BRANCH  18  19
ATOM     19 C12  MOL A   1      17.729 -17.204  -6.552  1.00  0.00     0.166 A 
ATOM     20 C13  MOL A   1      17.282 -16.939  -5.236  1.00  0.00     0.012 A 
ATOM     21 C21  MOL A   1      17.298 -17.974  -4.286  1.00  0.00    -0.054 A 
ATOM     22 C22  MOL A   1      17.792 -19.235  -4.621  1.00  0.00    -0.058 A 
ATOM     23 C23  MOL A   1      18.279 -19.479  -5.905  1.00  0.00    -0.016 A 
ATOM     24 C24  MOL A   1      18.255 -18.464  -6.879  1.00  0.00     0.161 A 
BRANCH  20  25
ATOM     25 C14  MOL A   1      16.789 -15.570  -4.823  1.00  0.00     0.028 C 
BRANCH  25  26
ATOM     26 N15  MOL A   1      15.650 -15.692  -3.890  1.00  0.00    -0.287 NA
ATOM     27 C16  MOL A   1      14.398 -15.999  -4.602  1.00  0.00     0.064 C 
ATOM     28 C17  MOL A   1      13.778 -14.664  -4.237  1.00  0.00     0.272 C 
ATOM     29 F18  MOL A   1      12.696 -14.770  -3.380  1.00  0.00    -0.204 F 
ATOM     30 F19  MOL A   1      13.553 -13.838  -5.326  1.00  0.00    -0.204 F 
ATOM     31 C20  MOL A   1      15.087 -14.381  -3.526  1.00  0.00     0.064 C 
ENDBRANCH  25  26
ENDBRANCH  20  25
BRANCH  24  32
ATOM     32 O25  MOL A   1      18.735 -18.668  -8.181  1.00  0.00    -0.493 OA
ATOM     33 C26  MOL A   1      18.211 -19.629  -9.091  1.00  0.00     0.078 C 
ENDBRANCH  24  32
ENDBRANCH  18  19
ENDBRANCH  17  18
ENDBRANCH  15  17
ENDBRANCH   8  14
ENDBRANCH   1   8
TORSDOF 10
ENDMDL
MODEL 380
REMARK VINA RESULT:    -7.047      5.075     10.045
REMARK INTER + INTRA:         -12.216
REMARK INTER:                 -11.384
REMARK INTRA:                  -0.832
REMARK UNBOUND:                -1.048
REMARK  10 active torsions:
REMARK  status: ('A' for Active; 'I' for Inactive)
REMARK   1   A    between atoms:  C27_1   and   C6_8  
REMARK   2   A    between atoms:  C6_8    and   C5_9  
REMARK   3   A    between atoms:  C5_9    and   C3_12 
REMARK   4   A    between atoms:  C6_8    and   N7_14 
REMARK   5   A    between atoms:  C8_15   and  C10_17 
REMARK   6   A    between atoms: C10_17   and  O11_18 
REMARK   7   A    between atoms: O11_18   and  C12_19 
REMARK   8   A    between atoms: C13_20   and  C14_25 
REMARK   9   A    between atoms: C14_25   and  N15_26 
REMARK   10  A    between atoms: C24_24   and  O25_32 
ROOT
ATOM      1 C27  MOL A   1       7.381 -17.128  -9.681  1.00  0.00    -0.024 A 
ATOM      2 C28  MOL A   1       6.894 -17.329  -8.377  1.00  0.00    -0.057 A 
ATOM      3 C29  MOL A   1       5.753 -16.651  -7.935  1.00  0.00    -0.061 A 
ATOM      4 C30  MOL A   1       5.087 -15.768  -8.789  1.00  0.00    -0.048 A 
ATOM      5 C31  MOL A   1       5.558 -15.561 -10.090  1.00  0.00     0.018 A 
ATOM      6 Br32 MOL A   1       4.634 -14.368 -11.266  1.00  0.00    -0.051 Br
ATOM      7 C33  MOL A   1       6.702 -16.233 -10.534  1.00  0.00    -0.043 A 
ENDROOT
BRANCH   1   8
ATOM      8  C6  MOL A   1       8.657 -17.808 -10.127  1.00  0.00     0.063 C 
BRANCH   8   9
ATOM      9  C5  MOL A   1       8.348 -18.838 -11.229  1.00  0.00     0.051 C 
BRANCH   9  12
ATOM     10  C1  MOL A   1       8.455 -22.515  -9.950  1.00  0.00     0.006 C 
ATOM     11  N2  MOL A   1       8.844 -21.233 -10.518  1.00  0.00    -0.359 N 
ATOM     12  C3  MOL A   1       7.914 -20.152 -10.649  1.00  0.00     0.222 C 
ATOM     13  O4  MOL A   1       6.719 -20.298 -10.272  1.00  0.00    -0.275 OA
ENDBRANCH   9  12
ENDBRANCH   8   9
BRANCH   8  14
ATOM     14  N7  MOL A   1       9.313 -18.455  -8.986  1.00  0.00    -0.346 N 
ATOM     15  C8  MOL A   1      10.716 -18.339  -8.738  1.00  0.00     0.258 C 
ATOM     16  O9  MOL A   1      11.446 -17.671  -9.518  1.00  0.00    -0.271 OA
BRANCH  15  17
ATOM     17 C10  MOL A   1      11.332 -18.999  -7.541  1.00  0.00     0.167 C 
BRANCH  17  18
ATOM     18 O11  MOL A   1      12.347 -19.916  -7.944  1.00  0.00    -0.480 OA
BRANCH  18  19
ATOM     19 C12  MOL A   1      13.467 -20.177  -7.151  1.00  0.00     0.166 A 
ATOM     20 C13  MOL A   1      14.328 -19.135  -6.736  1.00  0.00     0.012 A 
ATOM     21 C21  MOL A   1      15.397 -19.432  -5.875  1.00  0.00    -0.054 A 
ATOM     22 C22  MOL A   1      15.638 -20.745  -5.471  1.00  0.00    -0.058 A 
ATOM     23 C23  MOL A   1      14.817 -21.779  -5.922  1.00  0.00    -0.016 A 
ATOM     24 C24  MOL A   1      13.728 -21.503  -6.769  1.00  0.00     0.161 A 
BRANCH  20  25
ATOM     25 C14  MOL A   1      14.130 -17.707  -7.196  1.00  0.00     0.028 C 
BRANCH  25  26
ATOM     26 N15  MOL A   1      15.384 -16.940  -7.048  1.00  0.00    -0.287 NA
ATOM     27 C16  MOL A   1      15.133 -15.594  -6.505  1.00  0.00     0.064 C 
ATOM     28 C17  MOL A   1      15.574 -14.915  -7.786  1.00  0.00     0.272 C 
ATOM     29 F18  MOL A   1      16.736 -14.175  -7.652  1.00  0.00    -0.204 F 
ATOM     30 F19  MOL A   1      14.554 -14.243  -8.440  1.00  0.00    -0.204 F 
ATOM     31 C20  MOL A   1      15.807 -16.317  -8.314  1.00  0.00     0.064 C 
ENDBRANCH  25  26
ENDBRANCH  20  25
BRANCH  24  32
ATOM     32 O25  MOL A   1      12.880 -22.513  -7.246  1.00  0.00    -0.493 OA
ATOM     33 C26  MOL A   1      13.137 -23.908  -7.117  1.00  0.00     0.078 C 
ENDBRANCH  24  32
ENDBRANCH  18  19
ENDBRANCH  17  18
ENDBRANCH  15  17
ENDBRANCH   8  14
ENDBRANCH   1   8
TORSDOF 10
ENDMDL
MODEL 381
REMARK VINA RESULT:    -7.047     11.298     13.534
REMARK INTER + INTRA:         -12.215
REMARK INTER:                 -10.596
REMARK INTRA:                  -1.619
REMARK UNBOUND:                -1.048
REMARK  10 active torsions:
REMARK  status: ('A' for Active; 'I' for Inactive)
REMARK   1   A    between atoms:  C27_1   and   C6_8  
REMARK   2   A    between atoms:  C6_8    and   C5_9  
REMARK   3   A    between atoms:  C5_9    and   C3_12 
REMARK   4   A    between atoms:  C6_8    and   N7_14 
REMARK   5   A    between atoms:  C8_15   and  C10_17 
REMARK   6   A    between atoms: C10_17   and  O11_18 
REMARK   7   A    between atoms: O11_18   and  C12_19 
REMARK   8   A    between atoms: C13_20   and  C14_25 
REMARK   9   A    between atoms: C14_25   and  N15_26 
REMARK   10  A    between atoms: C24_24   and  O25_32 
ROOT
ATOM      1 C27  MOL A   1      17.930 -17.442 -11.190  1.00  0.00    -0.024 A 
ATOM      2 C28  MOL A   1      18.655 -16.255 -11.399  1.00  0.00    -0.057 A 
ATOM      3 C29  MOL A   1      18.836 -15.756 -12.694  1.00  0.00    -0.061 A 
ATOM      4 C30  MOL A   1      18.297 -16.435 -13.789  1.00  0.00    -0.048 A 
ATOM      5 C31  MOL A   1      17.571 -17.616 -13.595  1.00  0.00     0.018 A 
ATOM      6 Br32 MOL A   1      16.814 -18.533 -15.093  1.00  0.00    -0.051 Br
ATOM      7 C33  MOL A   1      17.392 -18.121 -12.303  1.00  0.00    -0.043 A 
ENDROOT
BRANCH   1   8
ATOM      8  C6  MOL A   1      17.800 -18.014  -9.795  1.00  0.00     0.063 C 
BRANCH   8   9
ATOM      9  C5  MOL A   1      17.988 -19.542  -9.831  1.00  0.00     0.051 C 
BRANCH   9  12
ATOM     10  C1  MOL A   1      20.578 -21.316  -7.526  1.00  0.00     0.006 C 
ATOM     11  N2  MOL A   1      19.327 -20.893  -8.137  1.00  0.00    -0.359 N 
ATOM     12  C3  MOL A   1      19.294 -19.950  -9.215  1.00  0.00     0.222 C 
ATOM     13  O4  MOL A   1      20.368 -19.458  -9.657  1.00  0.00    -0.275 OA
ENDBRANCH   9  12
ENDBRANCH   8   9
BRANCH   8  14
ATOM     14  N7  MOL A   1      16.494 -17.668  -9.223  1.00  0.00    -0.346 N 
ATOM     15  C8  MOL A   1      16.318 -16.586  -8.306  1.00  0.00     0.258 C 
ATOM     16  O9  MOL A   1      17.305 -15.890  -7.948  1.00  0.00    -0.271 OA
BRANCH  15  17
ATOM     17 C10  MOL A   1      14.956 -16.259  -7.772  1.00  0.00     0.167 C 
BRANCH  17  18
ATOM     18 O11  MOL A   1      14.579 -17.191  -6.761  1.00  0.00    -0.480 OA
BRANCH  18  19
ATOM     19 C12  MOL A   1      15.371 -17.421  -5.633  1.00  0.00     0.166 A 
ATOM     20 C13  MOL A   1      16.111 -18.617  -5.491  1.00  0.00     0.012 A 
ATOM     21 C21  MOL A   1      16.955 -18.773  -4.379  1.00  0.00    -0.054 A 
ATOM     22 C22  MOL A   1      17.027 -17.782  -3.401  1.00  0.00    -0.058 A 
ATOM     23 C23  MOL A   1      16.258 -16.624  -3.517  1.00  0.00    -0.016 A 
ATOM     24 C24  MOL A   1      15.420 -16.437  -4.632  1.00  0.00     0.161 A 
BRANCH  20  25
ATOM     25 C14  MOL A   1      16.018 -19.737  -6.504  1.00  0.00     0.028 C 
BRANCH  25  26
ATOM     26 N15  MOL A   1      15.921 -21.043  -5.822  1.00  0.00    -0.287 NA
ATOM     27 C16  MOL A   1      16.176 -22.159  -6.749  1.00  0.00     0.064 C 
ATOM     28 C17  MOL A   1      14.753 -22.672  -6.639  1.00  0.00     0.272 C 
ATOM     29 F18  MOL A   1      14.654 -23.905  -6.019  1.00  0.00    -0.204 F 
ATOM     30 F19  MOL A   1      14.033 -22.576  -7.819  1.00  0.00    -0.204 F 
ATOM     31 C20  MOL A   1      14.527 -21.504  -5.699  1.00  0.00     0.064 C 
ENDBRANCH  25  26
ENDBRANCH  20  25
BRANCH  24  32
ATOM     32 O25  MOL A   1      14.630 -15.289  -4.787  1.00  0.00    -0.493 OA
ATOM     33 C26  MOL A   1      13.913 -14.656  -3.732  1.00  0.00     0.078 C 
ENDBRANCH  24  32
ENDBRANCH  18  19
ENDBRANCH  17  18
ENDBRANCH  15  17
ENDBRANCH   8  14
ENDBRANCH   1   8
TORSDOF 10
ENDMDL
MODEL 382
REMARK VINA RESULT:    -7.043      7.077     10.418
REMARK INTER + INTRA:         -12.209
REMARK INTER:                 -10.125
REMARK INTRA:                  -2.084
REMARK UNBOUND:                -1.048
REMARK  10 active torsions:
REMARK  status: ('A' for Active; 'I' for Inactive)
REMARK   1   A    between atoms:  C27_1   and   C6_8  
REMARK   2   A    between atoms:  C6_8    and   C5_9  
REMARK   3   A    between atoms:  C5_9    and   C3_12 
REMARK   4   A    between atoms:  C6_8    and   N7_14 
REMARK   5   A    between atoms:  C8_15   and  C10_17 
REMARK   6   A    between atoms: C10_17   and  O11_18 
REMARK   7   A    between atoms: O11_18   and  C12_19 
REMARK   8   A    between atoms: C13_20   and  C14_25 
REMARK   9   A    between atoms: C14_25   and  N15_26 
REMARK   10  A    between atoms: C24_24   and  O25_32 
ROOT
ATOM      1 C27  MOL A   1      15.412 -19.684  -4.418  1.00  0.00    -0.024 A 
ATOM      2 C28  MOL A   1      14.950 -20.048  -3.141  1.00  0.00    -0.057 A 
ATOM      3 C29  MOL A   1      15.292 -19.283  -2.020  1.00  0.00    -0.061 A 
ATOM      4 C30  MOL A   1      16.097 -18.150  -2.164  1.00  0.00    -0.048 A 
ATOM      5 C31  MOL A   1      16.561 -17.775  -3.430  1.00  0.00     0.018 A 
ATOM      6 Br32 MOL A   1      17.645 -16.211  -3.628  1.00  0.00    -0.051 Br
ATOM      7 C33  MOL A   1      16.225 -18.540  -4.551  1.00  0.00    -0.043 A 
ENDROOT
BRANCH   1   8
ATOM      8  C6  MOL A   1      15.098 -20.557  -5.614  1.00  0.00     0.063 C 
BRANCH   8   9
ATOM      9  C5  MOL A   1      16.219 -20.437  -6.663  1.00  0.00     0.051 C 
BRANCH   9  12
ATOM     10  C1  MOL A   1      16.088 -23.061  -9.539  1.00  0.00     0.006 C 
ATOM     11  N2  MOL A   1      15.921 -21.836  -8.770  1.00  0.00    -0.359 N 
ATOM     12  C3  MOL A   1      16.398 -21.718  -7.426  1.00  0.00     0.222 C 
ATOM     13  O4  MOL A   1      16.977 -22.693  -6.872  1.00  0.00    -0.275 OA
ENDBRANCH   9  12
ENDBRANCH   8   9
BRANCH   8  14
ATOM     14  N7  MOL A   1      13.805 -20.178  -6.195  1.00  0.00    -0.346 N 
ATOM     15  C8  MOL A   1      12.802 -21.139  -6.530  1.00  0.00     0.258 C 
ATOM     16  O9  MOL A   1      13.010 -22.367  -6.341  1.00  0.00    -0.271 OA
BRANCH  15  17
ATOM     17 C10  MOL A   1      11.487 -20.695  -7.097  1.00  0.00     0.167 C 
BRANCH  17  18
ATOM     18 O11  MOL A   1      11.675 -19.618  -8.011  1.00  0.00    -0.480 OA
BRANCH  18  19
ATOM     19 C12  MOL A   1      10.626 -18.777  -8.393  1.00  0.00     0.166 A 
ATOM     20 C13  MOL A   1      10.442 -17.515  -7.784  1.00  0.00     0.012 A 
ATOM     21 C21  MOL A   1       9.423 -16.670  -8.254  1.00  0.00    -0.054 A 
ATOM     22 C22  MOL A   1       8.571 -17.088  -9.276  1.00  0.00    -0.058 A 
ATOM     23 C23  MOL A   1       8.723 -18.354  -9.842  1.00  0.00    -0.016 A 
ATOM     24 C24  MOL A   1       9.750 -19.210  -9.401  1.00  0.00     0.161 A 
BRANCH  20  25
ATOM     25 C14  MOL A   1      11.312 -17.049  -6.637  1.00  0.00     0.028 C 
BRANCH  25  26
ATOM     26 N15  MOL A   1      12.438 -16.236  -7.141  1.00  0.00    -0.287 NA
ATOM     27 C16  MOL A   1      13.737 -16.807  -6.747  1.00  0.00     0.064 C 
ATOM     28 C17  MOL A   1      14.068 -15.627  -5.856  1.00  0.00     0.272 C 
ATOM     29 F18  MOL A   1      15.135 -14.871  -6.309  1.00  0.00    -0.204 F 
ATOM     30 F19  MOL A   1      14.138 -15.947  -4.510  1.00  0.00    -0.204 F 
ATOM     31 C20  MOL A   1      12.718 -15.078  -6.275  1.00  0.00     0.064 C 
ENDBRANCH  25  26
ENDBRANCH  20  25
BRANCH  24  32
ATOM     32 O25  MOL A   1       9.936 -20.491  -9.943  1.00  0.00    -0.493 OA
ATOM     33 C26  MOL A   1       8.879 -21.372 -10.307  1.00  0.00     0.078 C 
ENDBRANCH  24  32
ENDBRANCH  18  19
ENDBRANCH  17  18
ENDBRANCH  15  17
ENDBRANCH   8  14
ENDBRANCH   1   8
TORSDOF 10
ENDMDL
MODEL 383
REMARK VINA RESULT:    -7.043      5.529      9.463
REMARK INTER + INTRA:         -12.208
REMARK INTER:                 -10.750
REMARK INTRA:                  -1.459
REMARK UNBOUND:                -1.048
REMARK  10 active torsions:
REMARK  status: ('A' for Active; 'I' for Inactive)
REMARK   1   A    between atoms:  C27_1   and   C6_8  
REMARK   2   A    between atoms:  C6_8    and   C5_9  
REMARK   3   A    between atoms:  C5_9    and   C3_12 
REMARK   4   A    between atoms:  C6_8    and   N7_14 
REMARK   5   A    between atoms:  C8_15   and  C10_17 
REMARK   6   A    between atoms: C10_17   and  O11_18 
REMARK   7   A    between atoms: O11_18   and  C12_19 
REMARK   8   A    between atoms: C13_20   and  C14_25 
REMARK   9   A    between atoms: C14_25   and  N15_26 
REMARK   10  A    between atoms: C24_24   and  O25_32 
ROOT
ATOM      1 C27  MOL A   1      16.217 -17.404  -7.588  1.00  0.00    -0.024 A 
ATOM      2 C28  MOL A   1      16.555 -16.795  -8.810  1.00  0.00    -0.057 A 
ATOM      3 C29  MOL A   1      17.643 -17.263  -9.556  1.00  0.00    -0.061 A 
ATOM      4 C30  MOL A   1      18.401 -18.340  -9.091  1.00  0.00    -0.048 A 
ATOM      5 C31  MOL A   1      18.073 -18.957  -7.879  1.00  0.00     0.018 A 
ATOM      6 Br32 MOL A   1      19.098 -20.446  -7.253  1.00  0.00    -0.051 Br
ATOM      7 C33  MOL A   1      16.990 -18.489  -7.127  1.00  0.00    -0.043 A 
ENDROOT
BRANCH   1   8
ATOM      8  C6  MOL A   1      15.085 -16.847  -6.752  1.00  0.00     0.063 C 
BRANCH   8   9
ATOM      9  C5  MOL A   1      15.425 -16.968  -5.256  1.00  0.00     0.051 C 
BRANCH   9  12
ATOM     10  C1  MOL A   1      14.200 -13.784  -3.376  1.00  0.00     0.006 C 
ATOM     11  N2  MOL A   1      14.224 -15.077  -4.044  1.00  0.00    -0.359 N 
ATOM     12  C3  MOL A   1      15.432 -15.626  -4.582  1.00  0.00     0.222 C 
ATOM     13  O4  MOL A   1      16.514 -14.985  -4.491  1.00  0.00    -0.275 OA
ENDBRANCH   9  12
ENDBRANCH   8   9
BRANCH   8  14
ATOM     14  N7  MOL A   1      13.834 -17.550  -7.056  1.00  0.00    -0.346 N 
ATOM     15  C8  MOL A   1      12.563 -16.897  -7.051  1.00  0.00     0.258 C 
ATOM     16  O9  MOL A   1      12.480 -15.672  -6.769  1.00  0.00    -0.271 OA
BRANCH  15  17
ATOM     17 C10  MOL A   1      11.318 -17.657  -7.395  1.00  0.00     0.167 C 
BRANCH  17  18
ATOM     18 O11  MOL A   1      11.513 -18.425  -8.580  1.00  0.00    -0.480 OA
BRANCH  18  19
ATOM     19 C12  MOL A   1      10.901 -19.667  -8.769  1.00  0.00     0.166 A 
ATOM     20 C13  MOL A   1       9.608 -19.767  -9.330  1.00  0.00     0.012 A 
ATOM     21 C21  MOL A   1       9.063 -21.038  -9.575  1.00  0.00    -0.054 A 
ATOM     22 C22  MOL A   1       9.768 -22.190  -9.225  1.00  0.00    -0.058 A 
ATOM     23 C23  MOL A   1      11.023 -22.088  -8.624  1.00  0.00    -0.016 A 
ATOM     24 C24  MOL A   1      11.598 -20.825  -8.388  1.00  0.00     0.161 A 
BRANCH  20  25
ATOM     25 C14  MOL A   1       8.792 -18.540  -9.674  1.00  0.00     0.028 C 
BRANCH  25  26
ATOM     26 N15  MOL A   1       8.066 -18.053  -8.483  1.00  0.00    -0.287 NA
ATOM     27 C16  MOL A   1       6.607 -18.174  -8.651  1.00  0.00     0.064 C 
ATOM     28 C17  MOL A   1       6.409 -16.671  -8.645  1.00  0.00     0.272 C 
ATOM     29 F18  MOL A   1       5.711 -16.208  -7.543  1.00  0.00    -0.204 F 
ATOM     30 F19  MOL A   1       5.954 -16.164  -9.851  1.00  0.00    -0.204 F 
ATOM     31 C20  MOL A   1       7.914 -16.588  -8.486  1.00  0.00     0.064 C 
ENDBRANCH  25  26
ENDBRANCH  20  25
BRANCH  24  32
ATOM     32 O25  MOL A   1      12.856 -20.680  -7.786  1.00  0.00    -0.493 OA
ATOM     33 C26  MOL A   1      13.157 -21.057  -6.446  1.00  0.00     0.078 C 
ENDBRANCH  24  32
ENDBRANCH  18  19
ENDBRANCH  17  18
ENDBRANCH  15  17
ENDBRANCH   8  14
ENDBRANCH   1   8
TORSDOF 10
ENDMDL
MODEL 384
REMARK VINA RESULT:    -7.041      9.151     12.127
REMARK INTER + INTRA:         -12.206
REMARK INTER:                 -10.401
REMARK INTRA:                  -1.805
REMARK UNBOUND:                -1.048
REMARK  10 active torsions:
REMARK  status: ('A' for Active; 'I' for Inactive)
REMARK   1   A    between atoms:  C27_1   and   C6_8  
REMARK   2   A    between atoms:  C6_8    and   C5_9  
REMARK   3   A    between atoms:  C5_9    and   C3_12 
REMARK   4   A    between atoms:  C6_8    and   N7_14 
REMARK   5   A    between atoms:  C8_15   and  C10_17 
REMARK   6   A    between atoms: C10_17   and  O11_18 
REMARK   7   A    between atoms: O11_18   and  C12_19 
REMARK   8   A    between atoms: C13_20   and  C14_25 
REMARK   9   A    between atoms: C14_25   and  N15_26 
REMARK   10  A    between atoms: C24_24   and  O25_32 
ROOT
ATOM      1 C27  MOL A   1      15.481 -17.791  -1.490  1.00  0.00    -0.024 A 
ATOM      2 C28  MOL A   1      14.871 -16.835  -0.658  1.00  0.00    -0.057 A 
ATOM      3 C29  MOL A   1      14.067 -17.240   0.413  1.00  0.00    -0.061 A 
ATOM      4 C30  MOL A   1      13.864 -18.600   0.663  1.00  0.00    -0.048 A 
ATOM      5 C31  MOL A   1      14.469 -19.561  -0.155  1.00  0.00     0.018 A 
ATOM      6 Br32 MOL A   1      14.209 -21.422   0.202  1.00  0.00    -0.051 Br
ATOM      7 C33  MOL A   1      15.269 -19.160  -1.230  1.00  0.00    -0.043 A 
ENDROOT
BRANCH   1   8
ATOM      8  C6  MOL A   1      16.290 -17.345  -2.689  1.00  0.00     0.063 C 
BRANCH   8   9
ATOM      9  C5  MOL A   1      16.417 -15.811  -2.698  1.00  0.00     0.051 C 
BRANCH   9  12
ATOM     10  C1  MOL A   1      19.969 -15.174  -4.166  1.00  0.00     0.006 C 
ATOM     11  N2  MOL A   1      18.581 -15.591  -4.023  1.00  0.00    -0.359 N 
ATOM     12  C3  MOL A   1      17.850 -15.378  -2.811  1.00  0.00     0.222 C 
ATOM     13  O4  MOL A   1      18.408 -14.820  -1.826  1.00  0.00    -0.275 OA
ENDBRANCH   9  12
ENDBRANCH   8   9
BRANCH   8  14
ATOM     14  N7  MOL A   1      15.664 -17.818  -3.929  1.00  0.00    -0.346 N 
ATOM     15  C8  MOL A   1      16.385 -18.546  -4.925  1.00  0.00     0.258 C 
ATOM     16  O9  MOL A   1      17.609 -18.797  -4.766  1.00  0.00    -0.271 OA
BRANCH  15  17
ATOM     17 C10  MOL A   1      15.690 -19.030  -6.162  1.00  0.00     0.167 C 
BRANCH  17  18
ATOM     18 O11  MOL A   1      14.279 -19.057  -5.963  1.00  0.00    -0.480 OA
BRANCH  18  19
ATOM     19 C12  MOL A   1      13.379 -19.033  -7.032  1.00  0.00     0.166 A 
ATOM     20 C13  MOL A   1      12.900 -17.810  -7.556  1.00  0.00     0.012 A 
ATOM     21 C21  MOL A   1      12.059 -17.830  -8.681  1.00  0.00    -0.054 A 
ATOM     22 C22  MOL A   1      11.661 -19.041  -9.247  1.00  0.00    -0.058 A 
ATOM     23 C23  MOL A   1      12.094 -20.248  -8.697  1.00  0.00    -0.016 A 
ATOM     24 C24  MOL A   1      12.954 -20.253  -7.582  1.00  0.00     0.161 A 
BRANCH  20  25
ATOM     25 C14  MOL A   1      13.267 -16.480  -6.937  1.00  0.00     0.028 C 
BRANCH  25  26
ATOM     26 N15  MOL A   1      13.985 -15.637  -7.915  1.00  0.00    -0.287 NA
ATOM     27 C16  MOL A   1      15.369 -16.097  -8.114  1.00  0.00     0.064 C 
ATOM     28 C17  MOL A   1      15.954 -14.839  -7.504  1.00  0.00     0.272 C 
ATOM     29 F18  MOL A   1      16.646 -14.053  -8.408  1.00  0.00    -0.204 F 
ATOM     30 F19  MOL A   1      16.632 -15.058  -6.316  1.00  0.00    -0.204 F 
ATOM     31 C20  MOL A   1      14.515 -14.405  -7.304  1.00  0.00     0.064 C 
ENDBRANCH  25  26
ENDBRANCH  20  25
BRANCH  24  32
ATOM     32 O25  MOL A   1      13.411 -21.443  -7.000  1.00  0.00    -0.493 OA
ATOM     33 C26  MOL A   1      12.570 -22.520  -6.601  1.00  0.00     0.078 C 
ENDBRANCH  24  32
ENDBRANCH  18  19
ENDBRANCH  17  18
ENDBRANCH  15  17
ENDBRANCH   8  14
ENDBRANCH   1   8
TORSDOF 10
ENDMDL
MODEL 385
REMARK VINA RESULT:    -7.038      6.110      9.642
REMARK INTER + INTRA:         -12.200
REMARK INTER:                 -10.869
REMARK INTRA:                  -1.331
REMARK UNBOUND:                -1.048
REMARK  10 active torsions:
REMARK  status: ('A' for Active; 'I' for Inactive)
REMARK   1   A    between atoms:  C27_1   and   C6_8  
REMARK   2   A    between atoms:  C6_8    and   C5_9  
REMARK   3   A    between atoms:  C5_9    and   C3_12 
REMARK   4   A    between atoms:  C6_8    and   N7_14 
REMARK   5   A    between atoms:  C8_15   and  C10_17 
REMARK   6   A    between atoms: C10_17   and  O11_18 
REMARK   7   A    between atoms: O11_18   and  C12_19 
REMARK   8   A    between atoms: C13_20   and  C14_25 
REMARK   9   A    between atoms: C14_25   and  N15_26 
REMARK   10  A    between atoms: C24_24   and  O25_32 
ROOT
ATOM      1 C27  MOL A   1      15.980 -18.501  -7.917  1.00  0.00    -0.024 A 
ATOM      2 C28  MOL A   1      16.097 -17.809  -9.136  1.00  0.00    -0.057 A 
ATOM      3 C29  MOL A   1      17.286 -17.867  -9.872  1.00  0.00    -0.061 A 
ATOM      4 C30  MOL A   1      18.368 -18.614  -9.398  1.00  0.00    -0.048 A 
ATOM      5 C31  MOL A   1      18.264 -19.309  -8.188  1.00  0.00     0.018 A 
ATOM      6 Br32 MOL A   1      19.738 -20.349  -7.551  1.00  0.00    -0.051 Br
ATOM      7 C33  MOL A   1      17.079 -19.249  -7.448  1.00  0.00    -0.043 A 
ENDROOT
BRANCH   1   8
ATOM      8  C6  MOL A   1      14.717 -18.374  -7.093  1.00  0.00     0.063 C 
BRANCH   8   9
ATOM      9  C5  MOL A   1      15.072 -18.043  -5.632  1.00  0.00     0.051 C 
BRANCH   9  12
ATOM     10  C1  MOL A   1      13.684 -14.412  -5.882  1.00  0.00     0.006 C 
ATOM     11  N2  MOL A   1      13.971 -15.810  -6.169  1.00  0.00    -0.359 N 
ATOM     12  C3  MOL A   1      14.804 -16.600  -5.314  1.00  0.00     0.222 C 
ATOM     13  O4  MOL A   1      15.317 -16.088  -4.282  1.00  0.00    -0.275 OA
ENDBRANCH   9  12
ENDBRANCH   8   9
BRANCH   8  14
ATOM     14  N7  MOL A   1      13.936 -19.613  -7.166  1.00  0.00    -0.346 N 
ATOM     15  C8  MOL A   1      12.507 -19.623  -7.176  1.00  0.00     0.258 C 
ATOM     16  O9  MOL A   1      11.865 -18.541  -7.109  1.00  0.00    -0.271 OA
BRANCH  15  17
ATOM     17 C10  MOL A   1      11.758 -20.917  -7.278  1.00  0.00     0.167 C 
BRANCH  17  18
ATOM     18 O11  MOL A   1      11.352 -21.153  -8.624  1.00  0.00    -0.480 OA
BRANCH  18  19
ATOM     19 C12  MOL A   1      10.137 -21.770  -8.935  1.00  0.00     0.166 A 
ATOM     20 C13  MOL A   1       8.914 -21.067  -8.839  1.00  0.00     0.012 A 
ATOM     21 C21  MOL A   1       7.725 -21.701  -9.237  1.00  0.00    -0.054 A 
ATOM     22 C22  MOL A   1       7.742 -23.025  -9.675  1.00  0.00    -0.058 A 
ATOM     23 C23  MOL A   1       8.943 -23.734  -9.721  1.00  0.00    -0.016 A 
ATOM     24 C24  MOL A   1      10.149 -23.112  -9.347  1.00  0.00     0.161 A 
BRANCH  20  25
ATOM     25 C14  MOL A   1       8.850 -19.648  -8.318  1.00  0.00     0.028 C 
BRANCH  25  26
ATOM     26 N15  MOL A   1       8.495 -18.714  -9.406  1.00  0.00    -0.287 NA
ATOM     27 C16  MOL A   1       9.315 -17.492  -9.360  1.00  0.00     0.064 C 
ATOM     28 C17  MOL A   1       8.122 -16.616  -9.032  1.00  0.00     0.272 C 
ATOM     29 F18  MOL A   1       7.795 -15.723 -10.038  1.00  0.00    -0.204 F 
ATOM     30 F19  MOL A   1       8.180 -16.045  -7.772  1.00  0.00    -0.204 F 
ATOM     31 C20  MOL A   1       7.314 -17.898  -9.076  1.00  0.00     0.064 C 
ENDBRANCH  25  26
ENDBRANCH  20  25
BRANCH  24  32
ATOM     32 O25  MOL A   1      11.377 -23.789  -9.377  1.00  0.00    -0.493 OA
ATOM     33 C26  MOL A   1      11.962 -24.449  -8.259  1.00  0.00     0.078 C 
ENDBRANCH  24  32
ENDBRANCH  18  19
ENDBRANCH  17  18
ENDBRANCH  15  17
ENDBRANCH   8  14
ENDBRANCH   1   8
TORSDOF 10
ENDMDL
MODEL 386
REMARK VINA RESULT:    -7.032      5.591      9.173
REMARK INTER + INTRA:         -12.192
REMARK INTER:                 -10.931
REMARK INTRA:                  -1.261
REMARK UNBOUND:                -1.048
REMARK  10 active torsions:
REMARK  status: ('A' for Active; 'I' for Inactive)
REMARK   1   A    between atoms:  C27_1   and   C6_8  
REMARK   2   A    between atoms:  C6_8    and   C5_9  
REMARK   3   A    between atoms:  C5_9    and   C3_12 
REMARK   4   A    between atoms:  C6_8    and   N7_14 
REMARK   5   A    between atoms:  C8_15   and  C10_17 
REMARK   6   A    between atoms: C10_17   and  O11_18 
REMARK   7   A    between atoms: O11_18   and  C12_19 
REMARK   8   A    between atoms: C13_20   and  C14_25 
REMARK   9   A    between atoms: C14_25   and  N15_26 
REMARK   10  A    between atoms: C24_24   and  O25_32 
ROOT
ATOM      1 C27  MOL A   1      14.203 -16.959  -6.436  1.00  0.00    -0.024 A 
ATOM      2 C28  MOL A   1      13.218 -15.981  -6.666  1.00  0.00    -0.057 A 
ATOM      3 C29  MOL A   1      13.092 -14.889  -5.801  1.00  0.00    -0.061 A 
ATOM      4 C30  MOL A   1      13.945 -14.762  -4.702  1.00  0.00    -0.048 A 
ATOM      5 C31  MOL A   1      14.931 -15.726  -4.464  1.00  0.00     0.018 A 
ATOM      6 Br32 MOL A   1      16.112 -15.539  -2.971  1.00  0.00    -0.051 Br
ATOM      7 C33  MOL A   1      15.057 -16.822  -5.323  1.00  0.00    -0.043 A 
ENDROOT
BRANCH   1   8
ATOM      8  C6  MOL A   1      14.287 -18.175  -7.334  1.00  0.00     0.063 C 
BRANCH   8   9
ATOM      9  C5  MOL A   1      14.898 -17.787  -8.692  1.00  0.00     0.051 C 
BRANCH   9  12
ATOM     10  C1  MOL A   1      18.026 -19.363 -10.396  1.00  0.00     0.006 C 
ATOM     11  N2  MOL A   1      16.710 -18.779 -10.182  1.00  0.00    -0.359 N 
ATOM     12  C3  MOL A   1      16.257 -18.396  -8.879  1.00  0.00     0.222 C 
ATOM     13  O4  MOL A   1      17.002 -18.566  -7.875  1.00  0.00    -0.275 OA
ENDBRANCH   9  12
ENDBRANCH   8   9
BRANCH   8  14
ATOM     14  N7  MOL A   1      12.956 -18.764  -7.516  1.00  0.00    -0.346 N 
ATOM     15  C8  MOL A   1      12.600 -20.041  -6.980  1.00  0.00     0.258 C 
ATOM     16  O9  MOL A   1      13.443 -20.714  -6.330  1.00  0.00    -0.271 OA
BRANCH  15  17
ATOM     17 C10  MOL A   1      11.216 -20.585  -7.173  1.00  0.00     0.167 C 
BRANCH  17  18
ATOM     18 O11  MOL A   1      10.936 -20.754  -8.561  1.00  0.00    -0.480 OA
BRANCH  18  19
ATOM     19 C12  MOL A   1       9.815 -21.456  -9.011  1.00  0.00     0.166 A 
ATOM     20 C13  MOL A   1       8.571 -20.810  -9.192  1.00  0.00     0.012 A 
ATOM     21 C21  MOL A   1       7.491 -21.537  -9.721  1.00  0.00    -0.054 A 
ATOM     22 C22  MOL A   1       7.629 -22.892 -10.019  1.00  0.00    -0.058 A 
ATOM     23 C23  MOL A   1       8.843 -23.541  -9.792  1.00  0.00    -0.016 A 
ATOM     24 C24  MOL A   1       9.945 -22.828  -9.282  1.00  0.00     0.161 A 
BRANCH  20  25
ATOM     25 C14  MOL A   1       8.369 -19.355  -8.830  1.00  0.00     0.028 C 
BRANCH  25  26
ATOM     26 N15  MOL A   1       7.456 -18.706  -9.792  1.00  0.00    -0.287 NA
ATOM     27 C16  MOL A   1       8.173 -17.764 -10.669  1.00  0.00     0.064 C 
ATOM     28 C17  MOL A   1       7.451 -16.563 -10.091  1.00  0.00     0.272 C 
ATOM     29 F18  MOL A   1       6.609 -15.935 -10.993  1.00  0.00    -0.204 F 
ATOM     30 F19  MOL A   1       8.279 -15.695  -9.398  1.00  0.00    -0.204 F 
ATOM     31 C20  MOL A   1       6.743 -17.562  -9.198  1.00  0.00     0.064 C 
ENDBRANCH  25  26
ENDBRANCH  20  25
BRANCH  24  32
ATOM     32 O25  MOL A   1      11.182 -23.443  -9.039  1.00  0.00    -0.493 OA
ATOM     33 C26  MOL A   1      11.529 -24.754  -9.471  1.00  0.00     0.078 C 
ENDBRANCH  24  32
ENDBRANCH  18  19
ENDBRANCH  17  18
ENDBRANCH  15  17
ENDBRANCH   8  14
ENDBRANCH   1   8
TORSDOF 10
ENDMDL
MODEL 387
REMARK VINA RESULT:    -7.032      7.315     10.683
REMARK INTER + INTRA:         -12.191
REMARK INTER:                 -10.904
REMARK INTRA:                  -1.287
REMARK UNBOUND:                -1.048
REMARK  10 active torsions:
REMARK  status: ('A' for Active; 'I' for Inactive)
REMARK   1   A    between atoms:  C27_1   and   C6_8  
REMARK   2   A    between atoms:  C6_8    and   C5_9  
REMARK   3   A    between atoms:  C5_9    and   C3_12 
REMARK   4   A    between atoms:  C6_8    and   N7_14 
REMARK   5   A    between atoms:  C8_15   and  C10_17 
REMARK   6   A    between atoms: C10_17   and  O11_18 
REMARK   7   A    between atoms: O11_18   and  C12_19 
REMARK   8   A    between atoms: C13_20   and  C14_25 
REMARK   9   A    between atoms: C14_25   and  N15_26 
REMARK   10  A    between atoms: C24_24   and  O25_32 
ROOT
ATOM      1 C27  MOL A   1      15.483 -18.056  -3.558  1.00  0.00    -0.024 A 
ATOM      2 C28  MOL A   1      15.695 -19.406  -3.222  1.00  0.00    -0.057 A 
ATOM      3 C29  MOL A   1      15.518 -19.844  -1.906  1.00  0.00    -0.061 A 
ATOM      4 C30  MOL A   1      15.129 -18.942  -0.912  1.00  0.00    -0.048 A 
ATOM      5 C31  MOL A   1      14.912 -17.597  -1.233  1.00  0.00     0.018 A 
ATOM      6 Br32 MOL A   1      14.358 -16.366   0.123  1.00  0.00    -0.051 Br
ATOM      7 C33  MOL A   1      15.093 -17.154  -2.547  1.00  0.00    -0.043 A 
ENDROOT
BRANCH   1   8
ATOM      8  C6  MOL A   1      15.747 -17.576  -4.968  1.00  0.00     0.063 C 
BRANCH   8   9
ATOM      9  C5  MOL A   1      15.870 -16.042  -4.988  1.00  0.00     0.051 C 
BRANCH   9  12
ATOM     10  C1  MOL A   1      19.645 -15.228  -4.478  1.00  0.00     0.006 C 
ATOM     11  N2  MOL A   1      18.268 -15.634  -4.235  1.00  0.00    -0.359 N 
ATOM     12  C3  MOL A   1      17.279 -15.606  -5.269  1.00  0.00     0.222 C 
ATOM     13  O4  MOL A   1      17.587 -15.216  -6.428  1.00  0.00    -0.275 OA
ENDBRANCH   9  12
ENDBRANCH   8   9
BRANCH   8  14
ATOM     14  N7  MOL A   1      14.675 -18.020  -5.865  1.00  0.00    -0.346 N 
ATOM     15  C8  MOL A   1      14.854 -18.140  -7.278  1.00  0.00     0.258 C 
ATOM     16  O9  MOL A   1      15.961 -17.850  -7.805  1.00  0.00    -0.271 OA
BRANCH  15  17
ATOM     17 C10  MOL A   1      13.731 -18.623  -8.146  1.00  0.00     0.167 C 
BRANCH  17  18
ATOM     18 O11  MOL A   1      12.532 -18.752  -7.386  1.00  0.00    -0.480 OA
BRANCH  18  19
ATOM     19 C12  MOL A   1      11.364 -18.064  -7.722  1.00  0.00     0.166 A 
ATOM     20 C13  MOL A   1      10.432 -18.607  -8.636  1.00  0.00     0.012 A 
ATOM     21 C21  MOL A   1       9.233 -17.918  -8.884  1.00  0.00    -0.054 A 
ATOM     22 C22  MOL A   1       8.985 -16.688  -8.275  1.00  0.00    -0.058 A 
ATOM     23 C23  MOL A   1       9.929 -16.129  -7.413  1.00  0.00    -0.016 A 
ATOM     24 C24  MOL A   1      11.128 -16.811  -7.133  1.00  0.00     0.161 A 
BRANCH  20  25
ATOM     25 C14  MOL A   1      10.690 -19.912  -9.356  1.00  0.00     0.028 C 
BRANCH  25  26
ATOM     26 N15  MOL A   1       9.770 -20.961  -8.870  1.00  0.00    -0.287 NA
ATOM     27 C16  MOL A   1      10.300 -22.310  -9.129  1.00  0.00     0.064 C 
ATOM     28 C17  MOL A   1       9.193 -22.636 -10.112  1.00  0.00     0.272 C 
ATOM     29 F18  MOL A   1       8.337 -23.632  -9.674  1.00  0.00    -0.204 F 
ATOM     30 F19  MOL A   1       9.636 -22.808 -11.413  1.00  0.00    -0.204 F 
ATOM     31 C20  MOL A   1       8.686 -21.236  -9.829  1.00  0.00     0.064 C 
ENDBRANCH  25  26
ENDBRANCH  20  25
BRANCH  24  32
ATOM     32 O25  MOL A   1      12.102 -16.284  -6.273  1.00  0.00    -0.493 OA
ATOM     33 C26  MOL A   1      12.713 -15.008  -6.434  1.00  0.00     0.078 C 
ENDBRANCH  24  32
ENDBRANCH  18  19
ENDBRANCH  17  18
ENDBRANCH  15  17
ENDBRANCH   8  14
ENDBRANCH   1   8
TORSDOF 10
ENDMDL
MODEL 388
REMARK VINA RESULT:    -7.031      6.896     10.987
REMARK INTER + INTRA:         -12.190
REMARK INTER:                 -11.333
REMARK INTRA:                  -0.857
REMARK UNBOUND:                -1.048
REMARK  10 active torsions:
REMARK  status: ('A' for Active; 'I' for Inactive)
REMARK   1   A    between atoms:  C27_1   and   C6_8  
REMARK   2   A    between atoms:  C6_8    and   C5_9  
REMARK   3   A    between atoms:  C5_9    and   C3_12 
REMARK   4   A    between atoms:  C6_8    and   N7_14 
REMARK   5   A    between atoms:  C8_15   and  C10_17 
REMARK   6   A    between atoms: C10_17   and  O11_18 
REMARK   7   A    between atoms: O11_18   and  C12_19 
REMARK   8   A    between atoms: C13_20   and  C14_25 
REMARK   9   A    between atoms: C14_25   and  N15_26 
REMARK   10  A    between atoms: C24_24   and  O25_32 
ROOT
ATOM      1 C27  MOL A   1      10.323 -18.725  -9.294  1.00  0.00    -0.024 A 
ATOM      2 C28  MOL A   1      10.182 -18.896 -10.683  1.00  0.00    -0.057 A 
ATOM      3 C29  MOL A   1       9.005 -18.501 -11.329  1.00  0.00    -0.061 A 
ATOM      4 C30  MOL A   1       7.960 -17.933 -10.595  1.00  0.00    -0.048 A 
ATOM      5 C31  MOL A   1       8.089 -17.755  -9.213  1.00  0.00     0.018 A 
ATOM      6 Br32 MOL A   1       6.666 -16.958  -8.213  1.00  0.00    -0.051 Br
ATOM      7 C33  MOL A   1       9.262 -18.154  -8.564  1.00  0.00    -0.043 A 
ENDROOT
BRANCH   1   8
ATOM      8  C6  MOL A   1      11.570 -19.222  -8.593  1.00  0.00     0.063 C 
BRANCH   8   9
ATOM      9  C5  MOL A   1      11.183 -20.075  -7.372  1.00  0.00     0.051 C 
BRANCH   9  12
ATOM     10  C1  MOL A   1      13.959 -22.544  -6.201  1.00  0.00     0.006 C 
ATOM     11  N2  MOL A   1      13.120 -21.362  -6.332  1.00  0.00    -0.359 N 
ATOM     12  C3  MOL A   1      12.037 -21.305  -7.267  1.00  0.00     0.222 C 
ATOM     13  O4  MOL A   1      11.791 -22.294  -8.010  1.00  0.00    -0.275 OA
ENDBRANCH   9  12
ENDBRANCH   8   9
BRANCH   8  14
ATOM     14  N7  MOL A   1      12.410 -18.089  -8.188  1.00  0.00    -0.346 N 
ATOM     15  C8  MOL A   1      13.758 -17.934  -8.634  1.00  0.00     0.258 C 
ATOM     16  O9  MOL A   1      14.278 -18.790  -9.398  1.00  0.00    -0.271 OA
BRANCH  15  17
ATOM     17 C10  MOL A   1      14.565 -16.743  -8.210  1.00  0.00     0.167 C 
BRANCH  17  18
ATOM     18 O11  MOL A   1      15.956 -16.991  -8.396  1.00  0.00    -0.480 OA
BRANCH  18  19
ATOM     19 C12  MOL A   1      16.772 -17.452  -7.359  1.00  0.00     0.166 A 
ATOM     20 C13  MOL A   1      16.816 -16.788  -6.112  1.00  0.00     0.012 A 
ATOM     21 C21  MOL A   1      17.589 -17.332  -5.073  1.00  0.00    -0.054 A 
ATOM     22 C22  MOL A   1      18.343 -18.487  -5.281  1.00  0.00    -0.058 A 
ATOM     23 C23  MOL A   1      18.337 -19.113  -6.528  1.00  0.00    -0.016 A 
ATOM     24 C24  MOL A   1      17.555 -18.598  -7.578  1.00  0.00     0.161 A 
BRANCH  20  25
ATOM     25 C14  MOL A   1      16.055 -15.504  -5.866  1.00  0.00     0.028 C 
BRANCH  25  26
ATOM     26 N15  MOL A   1      14.743 -15.793  -5.250  1.00  0.00    -0.287 NA
ATOM     27 C16  MOL A   1      13.847 -14.625  -5.311  1.00  0.00     0.064 C 
ATOM     28 C17  MOL A   1      13.844 -14.457  -3.805  1.00  0.00     0.272 C 
ATOM     29 F18  MOL A   1      12.614 -14.705  -3.220  1.00  0.00    -0.204 F 
ATOM     30 F19  MOL A   1      14.444 -13.285  -3.373  1.00  0.00    -0.204 F 
ATOM     31 C20  MOL A   1      14.775 -15.653  -3.784  1.00  0.00     0.064 C 
ENDBRANCH  25  26
ENDBRANCH  20  25
BRANCH  24  32
ATOM     32 O25  MOL A   1      17.522 -19.196  -8.846  1.00  0.00    -0.493 OA
ATOM     33 C26  MOL A   1      17.377 -20.594  -9.073  1.00  0.00     0.078 C 
ENDBRANCH  24  32
ENDBRANCH  18  19
ENDBRANCH  17  18
ENDBRANCH  15  17
ENDBRANCH   8  14
ENDBRANCH   1   8
TORSDOF 10
ENDMDL
MODEL 389
REMARK VINA RESULT:    -7.030      8.195     12.469
REMARK INTER + INTRA:         -12.189
REMARK INTER:                 -10.693
REMARK INTRA:                  -1.496
REMARK UNBOUND:                -1.048
REMARK  10 active torsions:
REMARK  status: ('A' for Active; 'I' for Inactive)
REMARK   1   A    between atoms:  C27_1   and   C6_8  
REMARK   2   A    between atoms:  C6_8    and   C5_9  
REMARK   3   A    between atoms:  C5_9    and   C3_12 
REMARK   4   A    between atoms:  C6_8    and   N7_14 
REMARK   5   A    between atoms:  C8_15   and  C10_17 
REMARK   6   A    between atoms: C10_17   and  O11_18 
REMARK   7   A    between atoms: O11_18   and  C12_19 
REMARK   8   A    between atoms: C13_20   and  C14_25 
REMARK   9   A    between atoms: C14_25   and  N15_26 
REMARK   10  A    between atoms: C24_24   and  O25_32 
ROOT
ATOM      1 C27  MOL A   1      14.985 -18.139  -1.074  1.00  0.00    -0.024 A 
ATOM      2 C28  MOL A   1      15.282 -19.306  -1.801  1.00  0.00    -0.057 A 
ATOM      3 C29  MOL A   1      15.252 -20.557  -1.175  1.00  0.00    -0.061 A 
ATOM      4 C30  MOL A   1      14.926 -20.655   0.180  1.00  0.00    -0.048 A 
ATOM      5 C31  MOL A   1      14.625 -19.503   0.915  1.00  0.00     0.018 A 
ATOM      6 Br32 MOL A   1      14.158 -19.640   2.765  1.00  0.00    -0.051 Br
ATOM      7 C33  MOL A   1      14.660 -18.250   0.294  1.00  0.00    -0.043 A 
ENDROOT
BRANCH   1   8
ATOM      8  C6  MOL A   1      15.091 -16.784  -1.740  1.00  0.00     0.063 C 
BRANCH   8   9
ATOM      9  C5  MOL A   1      14.228 -15.757  -0.984  1.00  0.00     0.051 C 
BRANCH   9  12
ATOM     10  C1  MOL A   1      16.669 -13.748   1.292  1.00  0.00     0.006 C 
ATOM     11  N2  MOL A   1      15.843 -14.815   0.746  1.00  0.00    -0.359 N 
ATOM     12  C3  MOL A   1      15.062 -14.633  -0.440  1.00  0.00     0.222 C 
ATOM     13  O4  MOL A   1      15.071 -13.523  -1.039  1.00  0.00    -0.275 OA
ENDBRANCH   9  12
ENDBRANCH   8   9
BRANCH   8  14
ATOM     14  N7  MOL A   1      14.675 -16.874  -3.144  1.00  0.00    -0.346 N 
ATOM     15  C8  MOL A   1      15.375 -16.208  -4.197  1.00  0.00     0.258 C 
ATOM     16  O9  MOL A   1      16.385 -15.501  -3.940  1.00  0.00    -0.271 OA
BRANCH  15  17
ATOM     17 C10  MOL A   1      14.923 -16.355  -5.619  1.00  0.00     0.167 C 
BRANCH  17  18
ATOM     18 O11  MOL A   1      15.214 -17.665  -6.102  1.00  0.00    -0.480 OA
BRANCH  18  19
ATOM     19 C12  MOL A   1      15.739 -17.884  -7.378  1.00  0.00     0.166 A 
ATOM     20 C13  MOL A   1      14.927 -18.372  -8.429  1.00  0.00     0.012 A 
ATOM     21 C21  MOL A   1      15.477 -18.503  -9.715  1.00  0.00    -0.054 A 
ATOM     22 C22  MOL A   1      16.819 -18.202  -9.945  1.00  0.00    -0.058 A 
ATOM     23 C23  MOL A   1      17.630 -17.768  -8.897  1.00  0.00    -0.016 A 
ATOM     24 C24  MOL A   1      17.097 -17.610  -7.604  1.00  0.00     0.161 A 
BRANCH  20  25
ATOM     25 C14  MOL A   1      13.482 -18.760  -8.205  1.00  0.00     0.028 C 
BRANCH  25  26
ATOM     26 N15  MOL A   1      12.584 -17.660  -8.612  1.00  0.00    -0.287 NA
ATOM     27 C16  MOL A   1      11.709 -17.238  -7.505  1.00  0.00     0.064 C 
ATOM     28 C17  MOL A   1      10.458 -17.718  -8.214  1.00  0.00     0.272 C 
ATOM     29 F18  MOL A   1       9.600 -16.695  -8.581  1.00  0.00    -0.204 F 
ATOM     30 F19  MOL A   1       9.830 -18.777  -7.581  1.00  0.00    -0.204 F 
ATOM     31 C20  MOL A   1      11.393 -18.150  -9.327  1.00  0.00     0.064 C 
ENDBRANCH  25  26
ENDBRANCH  20  25
BRANCH  24  32
ATOM     32 O25  MOL A   1      17.879 -17.178  -6.523  1.00  0.00    -0.493 OA
ATOM     33 C26  MOL A   1      18.536 -18.047  -5.605  1.00  0.00     0.078 C 
ENDBRANCH  24  32
ENDBRANCH  18  19
ENDBRANCH  17  18
ENDBRANCH  15  17
ENDBRANCH   8  14
ENDBRANCH   1   8
TORSDOF 10
ENDMDL
MODEL 390
REMARK VINA RESULT:    -7.029      5.806      9.555
REMARK INTER + INTRA:         -12.187
REMARK INTER:                 -10.813
REMARK INTRA:                  -1.374
REMARK UNBOUND:                -1.048
REMARK  10 active torsions:
REMARK  status: ('A' for Active; 'I' for Inactive)
REMARK   1   A    between atoms:  C27_1   and   C6_8  
REMARK   2   A    between atoms:  C6_8    and   C5_9  
REMARK   3   A    between atoms:  C5_9    and   C3_12 
REMARK   4   A    between atoms:  C6_8    and   N7_14 
REMARK   5   A    between atoms:  C8_15   and  C10_17 
REMARK   6   A    between atoms: C10_17   and  O11_18 
REMARK   7   A    between atoms: O11_18   and  C12_19 
REMARK   8   A    between atoms: C13_20   and  C14_25 
REMARK   9   A    between atoms: C14_25   and  N15_26 
REMARK   10  A    between atoms: C24_24   and  O25_32 
ROOT
ATOM      1 C27  MOL A   1      15.980 -17.786  -6.026  1.00  0.00    -0.024 A 
ATOM      2 C28  MOL A   1      17.360 -18.009  -6.184  1.00  0.00    -0.057 A 
ATOM      3 C29  MOL A   1      18.064 -18.772  -5.247  1.00  0.00    -0.061 A 
ATOM      4 C30  MOL A   1      17.400 -19.319  -4.146  1.00  0.00    -0.048 A 
ATOM      5 C31  MOL A   1      16.027 -19.108  -3.979  1.00  0.00     0.018 A 
ATOM      6 Br32 MOL A   1      15.114 -19.876  -2.483  1.00  0.00    -0.051 Br
ATOM      7 C33  MOL A   1      15.320 -18.341  -4.911  1.00  0.00    -0.043 A 
ENDROOT
BRANCH   1   8
ATOM      8  C6  MOL A   1      15.240 -16.899  -7.004  1.00  0.00     0.063 C 
BRANCH   8   9
ATOM      9  C5  MOL A   1      15.617 -15.425  -6.769  1.00  0.00     0.051 C 
BRANCH   9  12
ATOM     10  C1  MOL A   1      14.065 -14.194  -3.415  1.00  0.00     0.006 C 
ATOM     11  N2  MOL A   1      14.944 -14.830  -4.385  1.00  0.00    -0.359 N 
ATOM     12  C3  MOL A   1      14.685 -14.768  -5.792  1.00  0.00     0.222 C 
ATOM     13  O4  MOL A   1      13.669 -14.155  -6.222  1.00  0.00    -0.275 OA
ENDBRANCH   9  12
ENDBRANCH   8   9
BRANCH   8  14
ATOM     14  N7  MOL A   1      13.792 -17.090  -6.868  1.00  0.00    -0.346 N 
ATOM     15  C8  MOL A   1      12.983 -17.616  -7.922  1.00  0.00     0.258 C 
ATOM     16  O9  MOL A   1      13.503 -17.928  -9.026  1.00  0.00    -0.271 OA
BRANCH  15  17
ATOM     17 C10  MOL A   1      11.511 -17.815  -7.721  1.00  0.00     0.167 C 
BRANCH  17  18
ATOM     18 O11  MOL A   1      11.262 -19.043  -7.040  1.00  0.00    -0.480 OA
BRANCH  18  19
ATOM     19 C12  MOL A   1      10.949 -20.220  -7.724  1.00  0.00     0.166 A 
ATOM     20 C13  MOL A   1       9.711 -20.371  -8.392  1.00  0.00     0.012 A 
ATOM     21 C21  MOL A   1       9.470 -21.539  -9.133  1.00  0.00    -0.054 A 
ATOM     22 C22  MOL A   1      10.419 -22.561  -9.172  1.00  0.00    -0.058 A 
ATOM     23 C23  MOL A   1      11.618 -22.432  -8.471  1.00  0.00    -0.016 A 
ATOM     24 C24  MOL A   1      11.890 -21.262  -7.738  1.00  0.00     0.161 A 
BRANCH  20  25
ATOM     25 C14  MOL A   1       8.638 -19.307  -8.329  1.00  0.00     0.028 C 
BRANCH  25  26
ATOM     26 N15  MOL A   1       8.070 -19.067  -9.671  1.00  0.00    -0.287 NA
ATOM     27 C16  MOL A   1       8.859 -18.076 -10.423  1.00  0.00     0.064 C 
ATOM     28 C17  MOL A   1       7.729 -17.067 -10.423  1.00  0.00     0.272 C 
ATOM     29 F18  MOL A   1       7.204 -16.819 -11.680  1.00  0.00    -0.204 F 
ATOM     30 F19  MOL A   1       8.005 -15.921  -9.694  1.00  0.00    -0.204 F 
ATOM     31 C20  MOL A   1       6.953 -18.107  -9.638  1.00  0.00     0.064 C 
ENDBRANCH  25  26
ENDBRANCH  20  25
BRANCH  24  32
ATOM     32 O25  MOL A   1      13.083 -21.093  -7.020  1.00  0.00    -0.493 OA
ATOM     33 C26  MOL A   1      13.241 -21.400  -5.638  1.00  0.00     0.078 C 
ENDBRANCH  24  32
ENDBRANCH  18  19
ENDBRANCH  17  18
ENDBRANCH  15  17
ENDBRANCH   8  14
ENDBRANCH   1   8
TORSDOF 10
ENDMDL
MODEL 391
REMARK VINA RESULT:    -7.028      7.073     11.832
REMARK INTER + INTRA:         -12.185
REMARK INTER:                 -10.788
REMARK INTRA:                  -1.397
REMARK UNBOUND:                -1.048
REMARK  10 active torsions:
REMARK  status: ('A' for Active; 'I' for Inactive)
REMARK   1   A    between atoms:  C27_1   and   C6_8  
REMARK   2   A    between atoms:  C6_8    and   C5_9  
REMARK   3   A    between atoms:  C5_9    and   C3_12 
REMARK   4   A    between atoms:  C6_8    and   N7_14 
REMARK   5   A    between atoms:  C8_15   and  C10_17 
REMARK   6   A    between atoms: C10_17   and  O11_18 
REMARK   7   A    between atoms: O11_18   and  C12_19 
REMARK   8   A    between atoms: C13_20   and  C14_25 
REMARK   9   A    between atoms: C14_25   and  N15_26 
REMARK   10  A    between atoms: C24_24   and  O25_32 
ROOT
ATOM      1 C27  MOL A   1      13.084 -19.125  -7.237  1.00  0.00    -0.024 A 
ATOM      2 C28  MOL A   1      12.278 -20.276  -7.302  1.00  0.00    -0.057 A 
ATOM      3 C29  MOL A   1      12.525 -21.361  -6.454  1.00  0.00    -0.061 A 
ATOM      4 C30  MOL A   1      13.576 -21.309  -5.536  1.00  0.00    -0.048 A 
ATOM      5 C31  MOL A   1      14.384 -20.169  -5.459  1.00  0.00     0.018 A 
ATOM      6 Br32 MOL A   1      15.810 -20.089  -4.186  1.00  0.00    -0.051 Br
ATOM      7 C33  MOL A   1      14.144 -19.084  -6.308  1.00  0.00    -0.043 A 
ENDROOT
BRANCH   1   8
ATOM      8  C6  MOL A   1      12.856 -17.985  -8.207  1.00  0.00     0.063 C 
BRANCH   8   9
ATOM      9  C5  MOL A   1      12.753 -18.528  -9.643  1.00  0.00     0.051 C 
BRANCH   9  12
ATOM     10  C1  MOL A   1       8.913 -17.888  -9.795  1.00  0.00     0.006 C 
ATOM     11  N2  MOL A   1      10.285 -17.986  -9.318  1.00  0.00    -0.359 N 
ATOM     12  C3  MOL A   1      11.346 -18.448 -10.161  1.00  0.00     0.222 C 
ATOM     13  O4  MOL A   1      11.104 -18.791 -11.351  1.00  0.00    -0.275 OA
ENDBRANCH   9  12
ENDBRANCH   8   9
BRANCH   8  14
ATOM     14  N7  MOL A   1      13.942 -17.004  -8.102  1.00  0.00    -0.346 N 
ATOM     15  C8  MOL A   1      13.849 -15.838  -7.281  1.00  0.00     0.258 C 
ATOM     16  O9  MOL A   1      12.803 -15.610  -6.618  1.00  0.00    -0.271 OA
BRANCH  15  17
ATOM     17 C10  MOL A   1      15.000 -14.881  -7.191  1.00  0.00     0.167 C 
BRANCH  17  18
ATOM     18 O11  MOL A   1      16.140 -15.407  -7.865  1.00  0.00    -0.480 OA
BRANCH  18  19
ATOM     19 C12  MOL A   1      16.963 -16.376  -7.285  1.00  0.00     0.166 A 
ATOM     20 C13  MOL A   1      17.314 -16.313  -5.917  1.00  0.00     0.012 A 
ATOM     21 C21  MOL A   1      18.078 -17.351  -5.357  1.00  0.00    -0.054 A 
ATOM     22 C22  MOL A   1      18.527 -18.407  -6.150  1.00  0.00    -0.058 A 
ATOM     23 C23  MOL A   1      18.221 -18.441  -7.511  1.00  0.00    -0.016 A 
ATOM     24 C24  MOL A   1      17.441 -17.423  -8.090  1.00  0.00     0.161 A 
BRANCH  20  25
ATOM     25 C14  MOL A   1      16.891 -15.157  -5.038  1.00  0.00     0.028 C 
BRANCH  25  26
ATOM     26 N15  MOL A   1      16.383 -15.653  -3.742  1.00  0.00    -0.287 NA
ATOM     27 C16  MOL A   1      15.074 -16.312  -3.890  1.00  0.00     0.064 C 
ATOM     28 C17  MOL A   1      14.364 -15.247  -3.078  1.00  0.00     0.272 C 
ATOM     29 F18  MOL A   1      13.867 -15.707  -1.871  1.00  0.00    -0.204 F 
ATOM     30 F19  MOL A   1      13.457 -14.499  -3.810  1.00  0.00    -0.204 F 
ATOM     31 C20  MOL A   1      15.727 -14.592  -2.959  1.00  0.00     0.064 C 
ENDBRANCH  25  26
ENDBRANCH  20  25
BRANCH  24  32
ATOM     32 O25  MOL A   1      17.113 -17.419  -9.453  1.00  0.00    -0.493 OA
ATOM     33 C26  MOL A   1      18.005 -17.040 -10.496  1.00  0.00     0.078 C 
ENDBRANCH  24  32
ENDBRANCH  18  19
ENDBRANCH  17  18
ENDBRANCH  15  17
ENDBRANCH   8  14
ENDBRANCH   1   8
TORSDOF 10
ENDMDL
MODEL 392
REMARK VINA RESULT:    -7.028      5.353      8.720
REMARK INTER + INTRA:         -12.185
REMARK INTER:                 -10.731
REMARK INTRA:                  -1.454
REMARK UNBOUND:                -1.048
REMARK  10 active torsions:
REMARK  status: ('A' for Active; 'I' for Inactive)
REMARK   1   A    between atoms:  C27_1   and   C6_8  
REMARK   2   A    between atoms:  C6_8    and   C5_9  
REMARK   3   A    between atoms:  C5_9    and   C3_12 
REMARK   4   A    between atoms:  C6_8    and   N7_14 
REMARK   5   A    between atoms:  C8_15   and  C10_17 
REMARK   6   A    between atoms: C10_17   and  O11_18 
REMARK   7   A    between atoms: O11_18   and  C12_19 
REMARK   8   A    between atoms: C13_20   and  C14_25 
REMARK   9   A    between atoms: C14_25   and  N15_26 
REMARK   10  A    between atoms: C24_24   and  O25_32 
ROOT
ATOM      1 C27  MOL A   1      14.537 -18.757  -6.874  1.00  0.00    -0.024 A 
ATOM      2 C28  MOL A   1      14.544 -17.454  -7.404  1.00  0.00    -0.057 A 
ATOM      3 C29  MOL A   1      14.949 -16.372  -6.616  1.00  0.00    -0.061 A 
ATOM      4 C30  MOL A   1      15.350 -16.579  -5.293  1.00  0.00    -0.048 A 
ATOM      5 C31  MOL A   1      15.351 -17.870  -4.755  1.00  0.00     0.018 A 
ATOM      6 Br32 MOL A   1      15.922 -18.155  -2.951  1.00  0.00    -0.051 Br
ATOM      7 C33  MOL A   1      14.942 -18.954  -5.538  1.00  0.00    -0.043 A 
ENDROOT
BRANCH   1   8
ATOM      8  C6  MOL A   1      14.029 -19.912  -7.710  1.00  0.00     0.063 C 
BRANCH   8   9
ATOM      9  C5  MOL A   1      15.035 -20.235  -8.830  1.00  0.00     0.051 C 
BRANCH   9  12
ATOM     10  C1  MOL A   1      17.569 -22.704  -7.201  1.00  0.00     0.006 C 
ATOM     11  N2  MOL A   1      16.345 -22.124  -7.734  1.00  0.00    -0.359 N 
ATOM     12  C3  MOL A   1      16.311 -20.800  -8.279  1.00  0.00     0.222 C 
ATOM     13  O4  MOL A   1      17.360 -20.099  -8.301  1.00  0.00    -0.275 OA
ENDBRANCH   9  12
ENDBRANCH   8   9
BRANCH   8  14
ATOM     14  N7  MOL A   1      12.714 -19.592  -8.273  1.00  0.00    -0.346 N 
ATOM     15  C8  MOL A   1      11.649 -20.544  -8.331  1.00  0.00     0.258 C 
ATOM     16  O9  MOL A   1      11.819 -21.714  -7.898  1.00  0.00    -0.271 OA
BRANCH  15  17
ATOM     17 C10  MOL A   1      10.314 -20.156  -8.893  1.00  0.00     0.167 C 
BRANCH  17  18
ATOM     18 O11  MOL A   1       9.274 -20.905  -8.271  1.00  0.00    -0.480 OA
BRANCH  18  19
ATOM     19 C12  MOL A   1       8.159 -21.357  -8.982  1.00  0.00     0.166 A 
ATOM     20 C13  MOL A   1       6.979 -20.583  -9.062  1.00  0.00     0.012 A 
ATOM     21 C21  MOL A   1       5.911 -21.039  -9.853  1.00  0.00    -0.054 A 
ATOM     22 C22  MOL A   1       5.993 -22.265 -10.514  1.00  0.00    -0.058 A 
ATOM     23 C23  MOL A   1       7.139 -23.051 -10.393  1.00  0.00    -0.016 A 
ATOM     24 C24  MOL A   1       8.230 -22.605  -9.623  1.00  0.00     0.161 A 
BRANCH  20  25
ATOM     25 C14  MOL A   1       6.833 -19.275  -8.316  1.00  0.00     0.028 C 
BRANCH  25  26
ATOM     26 N15  MOL A   1       6.494 -18.183  -9.251  1.00  0.00    -0.287 NA
ATOM     27 C16  MOL A   1       7.629 -17.851 -10.130  1.00  0.00     0.064 C 
ATOM     28 C17  MOL A   1       7.790 -16.472  -9.523  1.00  0.00     0.272 C 
ATOM     29 F18  MOL A   1       7.496 -15.441 -10.399  1.00  0.00    -0.204 F 
ATOM     30 F19  MOL A   1       8.981 -16.301  -8.836  1.00  0.00    -0.204 F 
ATOM     31 C20  MOL A   1       6.629 -16.855  -8.628  1.00  0.00     0.064 C 
ENDBRANCH  25  26
ENDBRANCH  20  25
BRANCH  24  32
ATOM     32 O25  MOL A   1       9.399 -23.366  -9.476  1.00  0.00    -0.493 OA
ATOM     33 C26  MOL A   1      10.202 -23.825 -10.557  1.00  0.00     0.078 C 
ENDBRANCH  24  32
ENDBRANCH  18  19
ENDBRANCH  17  18
ENDBRANCH  15  17
ENDBRANCH   8  14
ENDBRANCH   1   8
TORSDOF 10
ENDMDL
MODEL 393
REMARK VINA RESULT:    -7.028      9.026     13.070
REMARK INTER + INTRA:         -12.185
REMARK INTER:                  -9.984
REMARK INTRA:                  -2.201
REMARK UNBOUND:                -1.048
REMARK  10 active torsions:
REMARK  status: ('A' for Active; 'I' for Inactive)
REMARK   1   A    between atoms:  C27_1   and   C6_8  
REMARK   2   A    between atoms:  C6_8    and   C5_9  
REMARK   3   A    between atoms:  C5_9    and   C3_12 
REMARK   4   A    between atoms:  C6_8    and   N7_14 
REMARK   5   A    between atoms:  C8_15   and  C10_17 
REMARK   6   A    between atoms: C10_17   and  O11_18 
REMARK   7   A    between atoms: O11_18   and  C12_19 
REMARK   8   A    between atoms: C13_20   and  C14_25 
REMARK   9   A    between atoms: C14_25   and  N15_26 
REMARK   10  A    between atoms: C24_24   and  O25_32 
ROOT
ATOM      1 C27  MOL A   1      16.844 -18.655  -8.554  1.00  0.00    -0.024 A 
ATOM      2 C28  MOL A   1      17.803 -19.629  -8.222  1.00  0.00    -0.057 A 
ATOM      3 C29  MOL A   1      19.026 -19.676  -8.898  1.00  0.00    -0.061 A 
ATOM      4 C30  MOL A   1      19.305 -18.754  -9.911  1.00  0.00    -0.048 A 
ATOM      5 C31  MOL A   1      18.361 -17.778 -10.249  1.00  0.00     0.018 A 
ATOM      6 Br32 MOL A   1      18.751 -16.502 -11.620  1.00  0.00    -0.051 Br
ATOM      7 C33  MOL A   1      17.134 -17.731  -9.579  1.00  0.00    -0.043 A 
ENDROOT
BRANCH   1   8
ATOM      8  C6  MOL A   1      15.494 -18.656  -7.869  1.00  0.00     0.063 C 
BRANCH   8   9
ATOM      9  C5  MOL A   1      14.835 -17.271  -8.000  1.00  0.00     0.051 C 
BRANCH   9  12
ATOM     10  C1  MOL A   1      11.260 -18.162  -9.265  1.00  0.00     0.006 C 
ATOM     11  N2  MOL A   1      12.707 -18.034  -9.174  1.00  0.00    -0.359 N 
ATOM     12  C3  MOL A   1      13.339 -17.378  -8.070  1.00  0.00     0.222 C 
ATOM     13  O4  MOL A   1      12.640 -16.887  -7.142  1.00  0.00    -0.275 OA
ENDBRANCH   9  12
ENDBRANCH   8   9
BRANCH   8  14
ATOM     14  N7  MOL A   1      15.642 -19.025  -6.457  1.00  0.00    -0.346 N 
ATOM     15  C8  MOL A   1      14.742 -19.918  -5.797  1.00  0.00     0.258 C 
ATOM     16  O9  MOL A   1      13.768 -20.416  -6.423  1.00  0.00    -0.271 OA
BRANCH  15  17
ATOM     17 C10  MOL A   1      14.954 -20.283  -4.359  1.00  0.00     0.167 C 
BRANCH  17  18
ATOM     18 O11  MOL A   1      15.853 -19.367  -3.739  1.00  0.00    -0.480 OA
BRANCH  18  19
ATOM     19 C12  MOL A   1      15.476 -18.584  -2.645  1.00  0.00     0.166 A 
ATOM     20 C13  MOL A   1      15.071 -17.240  -2.812  1.00  0.00     0.012 A 
ATOM     21 C21  MOL A   1      14.624 -16.514  -1.695  1.00  0.00    -0.054 A 
ATOM     22 C22  MOL A   1      14.625 -17.095  -0.427  1.00  0.00    -0.058 A 
ATOM     23 C23  MOL A   1      15.073 -18.405  -0.256  1.00  0.00    -0.016 A 
ATOM     24 C24  MOL A   1      15.506 -19.158  -1.363  1.00  0.00     0.161 A 
BRANCH  20  25
ATOM     25 C14  MOL A   1      15.106 -16.560  -4.163  1.00  0.00     0.028 C 
BRANCH  25  26
ATOM     26 N15  MOL A   1      16.123 -15.488  -4.175  1.00  0.00    -0.287 NA
ATOM     27 C16  MOL A   1      16.369 -14.990  -5.538  1.00  0.00     0.064 C 
ATOM     28 C17  MOL A   1      17.791 -15.515  -5.553  1.00  0.00     0.272 C 
ATOM     29 F18  MOL A   1      18.751 -14.519  -5.585  1.00  0.00    -0.204 F 
ATOM     30 F19  MOL A   1      18.002 -16.528  -6.474  1.00  0.00    -0.204 F 
ATOM     31 C20  MOL A   1      17.495 -16.025  -4.156  1.00  0.00     0.064 C 
ENDBRANCH  25  26
ENDBRANCH  20  25
BRANCH  24  32
ATOM     32 O25  MOL A   1      15.964 -20.477  -1.234  1.00  0.00    -0.493 OA
ATOM     33 C26  MOL A   1      15.897 -21.240  -0.034  1.00  0.00     0.078 C 
ENDBRANCH  24  32
ENDBRANCH  18  19
ENDBRANCH  17  18
ENDBRANCH  15  17
ENDBRANCH   8  14
ENDBRANCH   1   8
TORSDOF 10
ENDMDL
MODEL 394
REMARK VINA RESULT:    -7.028      5.591     10.595
REMARK INTER + INTRA:         -12.184
REMARK INTER:                 -10.946
REMARK INTRA:                  -1.238
REMARK UNBOUND:                -1.048
REMARK  10 active torsions:
REMARK  status: ('A' for Active; 'I' for Inactive)
REMARK   1   A    between atoms:  C27_1   and   C6_8  
REMARK   2   A    between atoms:  C6_8    and   C5_9  
REMARK   3   A    between atoms:  C5_9    and   C3_12 
REMARK   4   A    between atoms:  C6_8    and   N7_14 
REMARK   5   A    between atoms:  C8_15   and  C10_17 
REMARK   6   A    between atoms: C10_17   and  O11_18 
REMARK   7   A    between atoms: O11_18   and  C12_19 
REMARK   8   A    between atoms: C13_20   and  C14_25 
REMARK   9   A    between atoms: C14_25   and  N15_26 
REMARK   10  A    between atoms: C24_24   and  O25_32 
ROOT
ATOM      1 C27  MOL A   1       9.224 -20.555  -8.954  1.00  0.00    -0.024 A 
ATOM      2 C28  MOL A   1       7.842 -20.745  -8.771  1.00  0.00    -0.057 A 
ATOM      3 C29  MOL A   1       7.254 -21.981  -9.057  1.00  0.00    -0.061 A 
ATOM      4 C30  MOL A   1       8.037 -23.038  -9.528  1.00  0.00    -0.048 A 
ATOM      5 C31  MOL A   1       9.414 -22.864  -9.711  1.00  0.00     0.018 A 
ATOM      6 Br32 MOL A   1      10.489 -24.318 -10.335  1.00  0.00    -0.051 Br
ATOM      7 C33  MOL A   1      10.004 -21.627  -9.431  1.00  0.00    -0.043 A 
ENDROOT
BRANCH   1   8
ATOM      8  C6  MOL A   1       9.839 -19.194  -8.712  1.00  0.00     0.063 C 
BRANCH   8   9
ATOM      9  C5  MOL A   1       9.109 -18.128  -9.548  1.00  0.00     0.051 C 
BRANCH   9  12
ATOM     10  C1  MOL A   1       5.981 -16.648  -7.759  1.00  0.00     0.006 C 
ATOM     11  N2  MOL A   1       6.839 -17.478  -8.592  1.00  0.00    -0.359 N 
ATOM     12  C3  MOL A   1       8.249 -17.247  -8.688  1.00  0.00     0.222 C 
ATOM     13  O4  MOL A   1       8.780 -16.301  -8.044  1.00  0.00    -0.275 OA
ENDBRANCH   9  12
ENDBRANCH   8   9
BRANCH   8  14
ATOM     14  N7  MOL A   1      11.269 -19.217  -9.040  1.00  0.00    -0.346 N 
ATOM     15  C8  MOL A   1      12.214 -18.338  -8.426  1.00  0.00     0.258 C 
ATOM     16  O9  MOL A   1      11.833 -17.493  -7.572  1.00  0.00    -0.271 OA
BRANCH  15  17
ATOM     17 C10  MOL A   1      13.668 -18.421  -8.779  1.00  0.00     0.167 C 
BRANCH  17  18
ATOM     18 O11  MOL A   1      14.395 -19.083  -7.746  1.00  0.00    -0.480 OA
BRANCH  18  19
ATOM     19 C12  MOL A   1      15.681 -18.684  -7.372  1.00  0.00     0.166 A 
ATOM     20 C13  MOL A   1      15.883 -17.756  -6.325  1.00  0.00     0.012 A 
ATOM     21 C21  MOL A   1      17.194 -17.444  -5.929  1.00  0.00    -0.054 A 
ATOM     22 C22  MOL A   1      18.286 -18.003  -6.593  1.00  0.00    -0.058 A 
ATOM     23 C23  MOL A   1      18.085 -18.880  -7.659  1.00  0.00    -0.016 A 
ATOM     24 C24  MOL A   1      16.780 -19.224  -8.060  1.00  0.00     0.161 A 
BRANCH  20  25
ATOM     25 C14  MOL A   1      14.724 -17.088  -5.618  1.00  0.00     0.028 C 
BRANCH  25  26
ATOM     26 N15  MOL A   1      15.063 -15.691  -5.280  1.00  0.00    -0.287 NA
ATOM     27 C16  MOL A   1      14.917 -15.432  -3.837  1.00  0.00     0.064 C 
ATOM     28 C17  MOL A   1      13.766 -14.469  -4.051  1.00  0.00     0.272 C 
ATOM     29 F18  MOL A   1      14.067 -13.160  -3.718  1.00  0.00    -0.204 F 
ATOM     30 F19  MOL A   1      12.561 -14.917  -3.535  1.00  0.00    -0.204 F 
ATOM     31 C20  MOL A   1      13.939 -14.771  -5.527  1.00  0.00     0.064 C 
ENDBRANCH  25  26
ENDBRANCH  20  25
BRANCH  24  32
ATOM     32 O25  MOL A   1      16.535 -20.100  -9.127  1.00  0.00    -0.493 OA
ATOM     33 C26  MOL A   1      16.862 -21.486  -9.123  1.00  0.00     0.078 C 
ENDBRANCH  24  32
ENDBRANCH  18  19
ENDBRANCH  17  18
ENDBRANCH  15  17
ENDBRANCH   8  14
ENDBRANCH   1   8
TORSDOF 10
ENDMDL
MODEL 395
REMARK VINA RESULT:    -7.027      9.246     12.223
REMARK INTER + INTRA:         -12.183
REMARK INTER:                 -10.399
REMARK INTRA:                  -1.784
REMARK UNBOUND:                -1.048
REMARK  10 active torsions:
REMARK  status: ('A' for Active; 'I' for Inactive)
REMARK   1   A    between atoms:  C27_1   and   C6_8  
REMARK   2   A    between atoms:  C6_8    and   C5_9  
REMARK   3   A    between atoms:  C5_9    and   C3_12 
REMARK   4   A    between atoms:  C6_8    and   N7_14 
REMARK   5   A    between atoms:  C8_15   and  C10_17 
REMARK   6   A    between atoms: C10_17   and  O11_18 
REMARK   7   A    between atoms: O11_18   and  C12_19 
REMARK   8   A    between atoms: C13_20   and  C14_25 
REMARK   9   A    between atoms: C14_25   and  N15_26 
REMARK   10  A    between atoms: C24_24   and  O25_32 
ROOT
ATOM      1 C27  MOL A   1      15.442 -17.188  -1.639  1.00  0.00    -0.024 A 
ATOM      2 C28  MOL A   1      15.009 -18.482  -1.298  1.00  0.00    -0.057 A 
ATOM      3 C29  MOL A   1      14.242 -18.692  -0.147  1.00  0.00    -0.061 A 
ATOM      4 C30  MOL A   1      13.901 -17.614   0.675  1.00  0.00    -0.048 A 
ATOM      5 C31  MOL A   1      14.322 -16.321   0.346  1.00  0.00     0.018 A 
ATOM      6 Br32 MOL A   1      13.836 -14.843   1.459  1.00  0.00    -0.051 Br
ATOM      7 C33  MOL A   1      15.093 -16.108  -0.802  1.00  0.00    -0.043 A 
ENDROOT
BRANCH   1   8
ATOM      8  C6  MOL A   1      16.331 -16.979  -2.845  1.00  0.00     0.063 C 
BRANCH   8   9
ATOM      9  C5  MOL A   1      16.625 -15.480  -3.031  1.00  0.00     0.051 C 
BRANCH   9  12
ATOM     10  C1  MOL A   1      20.302 -15.156  -4.276  1.00  0.00     0.006 C 
ATOM     11  N2  MOL A   1      18.872 -15.422  -4.230  1.00  0.00    -0.359 N 
ATOM     12  C3  MOL A   1      18.102 -15.206  -3.043  1.00  0.00     0.222 C 
ATOM     13  O4  MOL A   1      18.660 -14.779  -1.996  1.00  0.00    -0.275 OA
ENDBRANCH   9  12
ENDBRANCH   8   9
BRANCH   8  14
ATOM     14  N7  MOL A   1      15.697 -17.534  -4.046  1.00  0.00    -0.346 N 
ATOM     15  C8  MOL A   1      16.383 -18.406  -4.946  1.00  0.00     0.258 C 
ATOM     16  O9  MOL A   1      17.584 -18.722  -4.732  1.00  0.00    -0.271 OA
BRANCH  15  17
ATOM     17 C10  MOL A   1      15.679 -18.965  -6.146  1.00  0.00     0.167 C 
BRANCH  17  18
ATOM     18 O11  MOL A   1      14.270 -18.989  -5.931  1.00  0.00    -0.480 OA
BRANCH  18  19
ATOM     19 C12  MOL A   1      13.359 -18.999  -6.990  1.00  0.00     0.166 A 
ATOM     20 C13  MOL A   1      12.887 -17.794  -7.560  1.00  0.00     0.012 A 
ATOM     21 C21  MOL A   1      12.033 -17.852  -8.675  1.00  0.00    -0.054 A 
ATOM     22 C22  MOL A   1      11.616 -19.082  -9.184  1.00  0.00    -0.058 A 
ATOM     23 C23  MOL A   1      12.043 -20.269  -8.589  1.00  0.00    -0.016 A 
ATOM     24 C24  MOL A   1      12.914 -20.236  -7.484  1.00  0.00     0.161 A 
BRANCH  20  25
ATOM     25 C14  MOL A   1      13.274 -16.443  -7.002  1.00  0.00     0.028 C 
BRANCH  25  26
ATOM     26 N15  MOL A   1      14.039 -15.672  -8.003  1.00  0.00    -0.287 NA
ATOM     27 C16  MOL A   1      15.397 -16.214  -8.182  1.00  0.00     0.064 C 
ATOM     28 C17  MOL A   1      16.048 -14.970  -7.609  1.00  0.00     0.272 C 
ATOM     29 F18  MOL A   1      16.785 -14.252  -8.535  1.00  0.00    -0.204 F 
ATOM     30 F19  MOL A   1      16.711 -15.189  -6.412  1.00  0.00    -0.204 F 
ATOM     31 C20  MOL A   1      14.634 -14.453  -7.429  1.00  0.00     0.064 C 
ENDBRANCH  25  26
ENDBRANCH  20  25
BRANCH  24  32
ATOM     32 O25  MOL A   1      13.366 -21.406  -6.856  1.00  0.00    -0.493 OA
ATOM     33 C26  MOL A   1      12.612 -22.610  -6.759  1.00  0.00     0.078 C 
ENDBRANCH  24  32
ENDBRANCH  18  19
ENDBRANCH  17  18
ENDBRANCH  15  17
ENDBRANCH   8  14
ENDBRANCH   1   8
TORSDOF 10
ENDMDL
MODEL 396
REMARK VINA RESULT:    -7.022      7.090     11.040
REMARK INTER + INTRA:         -12.176
REMARK INTER:                 -10.512
REMARK INTRA:                  -1.664
REMARK UNBOUND:                -1.048
REMARK  10 active torsions:
REMARK  status: ('A' for Active; 'I' for Inactive)
REMARK   1   A    between atoms:  C27_1   and   C6_8  
REMARK   2   A    between atoms:  C6_8    and   C5_9  
REMARK   3   A    between atoms:  C5_9    and   C3_12 
REMARK   4   A    between atoms:  C6_8    and   N7_14 
REMARK   5   A    between atoms:  C8_15   and  C10_17 
REMARK   6   A    between atoms: C10_17   and  O11_18 
REMARK   7   A    between atoms: O11_18   and  C12_19 
REMARK   8   A    between atoms: C13_20   and  C14_25 
REMARK   9   A    between atoms: C14_25   and  N15_26 
REMARK   10  A    between atoms: C24_24   and  O25_32 
ROOT
ATOM      1 C27  MOL A   1      10.320 -18.815  -9.124  1.00  0.00    -0.024 A 
ATOM      2 C28  MOL A   1      10.342 -18.914 -10.527  1.00  0.00    -0.057 A 
ATOM      3 C29  MOL A   1       9.202 -18.605 -11.276  1.00  0.00    -0.061 A 
ATOM      4 C30  MOL A   1       8.031 -18.195 -10.635  1.00  0.00    -0.048 A 
ATOM      5 C31  MOL A   1       7.996 -18.088  -9.240  1.00  0.00     0.018 A 
ATOM      6 Br32 MOL A   1       6.398 -17.506  -8.363  1.00  0.00    -0.051 Br
ATOM      7 C33  MOL A   1       9.132 -18.402  -8.486  1.00  0.00    -0.043 A 
ENDROOT
BRANCH   1   8
ATOM      8  C6  MOL A   1      11.534 -19.220  -8.316  1.00  0.00     0.063 C 
BRANCH   8   9
ATOM      9  C5  MOL A   1      11.286 -20.580  -7.638  1.00  0.00     0.051 C 
BRANCH   9  12
ATOM     10  C1  MOL A   1      14.820 -22.185  -7.312  1.00  0.00     0.006 C 
ATOM     11  N2  MOL A   1      13.584 -21.653  -7.868  1.00  0.00    -0.359 N 
ATOM     12  C3  MOL A   1      12.544 -21.131  -7.033  1.00  0.00     0.222 C 
ATOM     13  O4  MOL A   1      12.682 -21.128  -5.779  1.00  0.00    -0.275 OA
ENDBRANCH   9  12
ENDBRANCH   8   9
BRANCH   8  14
ATOM     14  N7  MOL A   1      11.845 -18.193  -7.316  1.00  0.00    -0.346 N 
ATOM     15  C8  MOL A   1      12.679 -17.068  -7.602  1.00  0.00     0.258 C 
ATOM     16  O9  MOL A   1      13.189 -16.931  -8.746  1.00  0.00    -0.271 OA
BRANCH  15  17
ATOM     17 C10  MOL A   1      12.943 -16.034  -6.550  1.00  0.00     0.167 C 
BRANCH  17  18
ATOM     18 O11  MOL A   1      14.332 -15.991  -6.231  1.00  0.00    -0.480 OA
BRANCH  18  19
ATOM     19 C12  MOL A   1      14.867 -16.699  -5.151  1.00  0.00     0.166 A 
ATOM     20 C13  MOL A   1      15.499 -17.949  -5.338  1.00  0.00     0.012 A 
ATOM     21 C21  MOL A   1      16.093 -18.588  -4.237  1.00  0.00    -0.054 A 
ATOM     22 C22  MOL A   1      16.018 -18.022  -2.965  1.00  0.00    -0.058 A 
ATOM     23 C23  MOL A   1      15.350 -16.812  -2.774  1.00  0.00    -0.016 A 
ATOM     24 C24  MOL A   1      14.765 -16.143  -3.865  1.00  0.00     0.161 A 
BRANCH  20  25
ATOM     25 C14  MOL A   1      15.554 -18.620  -6.693  1.00  0.00     0.028 C 
BRANCH  25  26
ATOM     26 N15  MOL A   1      16.955 -18.876  -7.086  1.00  0.00    -0.287 NA
ATOM     27 C16  MOL A   1      17.636 -17.639  -7.502  1.00  0.00     0.064 C 
ATOM     28 C17  MOL A   1      17.778 -18.113  -8.935  1.00  0.00     0.272 C 
ATOM     29 F18  MOL A   1      19.089 -18.336  -9.319  1.00  0.00    -0.204 F 
ATOM     30 F19  MOL A   1      17.047 -17.366  -9.844  1.00  0.00    -0.204 F 
ATOM     31 C20  MOL A   1      17.063 -19.366  -8.471  1.00  0.00     0.064 C 
ENDBRANCH  25  26
ENDBRANCH  20  25
BRANCH  24  32
ATOM     32 O25  MOL A   1      14.084 -14.927  -3.716  1.00  0.00    -0.493 OA
ATOM     33 C26  MOL A   1      14.641 -13.759  -3.123  1.00  0.00     0.078 C 
ENDBRANCH  24  32
ENDBRANCH  18  19
ENDBRANCH  17  18
ENDBRANCH  15  17
ENDBRANCH   8  14
ENDBRANCH   1   8
TORSDOF 10
ENDMDL
MODEL 397
REMARK VINA RESULT:    -7.022      9.371     13.186
REMARK INTER + INTRA:         -12.176
REMARK INTER:                 -10.369
REMARK INTRA:                  -1.807
REMARK UNBOUND:                -1.048
REMARK  10 active torsions:
REMARK  status: ('A' for Active; 'I' for Inactive)
REMARK   1   A    between atoms:  C27_1   and   C6_8  
REMARK   2   A    between atoms:  C6_8    and   C5_9  
REMARK   3   A    between atoms:  C5_9    and   C3_12 
REMARK   4   A    between atoms:  C6_8    and   N7_14 
REMARK   5   A    between atoms:  C8_15   and  C10_17 
REMARK   6   A    between atoms: C10_17   and  O11_18 
REMARK   7   A    between atoms: O11_18   and  C12_19 
REMARK   8   A    between atoms: C13_20   and  C14_25 
REMARK   9   A    between atoms: C14_25   and  N15_26 
REMARK   10  A    between atoms: C24_24   and  O25_32 
ROOT
ATOM      1 C27  MOL A   1      15.518 -15.772  -3.998  1.00  0.00    -0.024 A 
ATOM      2 C28  MOL A   1      14.297 -15.554  -3.334  1.00  0.00    -0.057 A 
ATOM      3 C29  MOL A   1      13.221 -14.966  -4.008  1.00  0.00    -0.061 A 
ATOM      4 C30  MOL A   1      13.353 -14.590  -5.347  1.00  0.00    -0.048 A 
ATOM      5 C31  MOL A   1      14.561 -14.804  -6.020  1.00  0.00     0.018 A 
ATOM      6 Br32 MOL A   1      14.733 -14.309  -7.860  1.00  0.00    -0.051 Br
ATOM      7 C33  MOL A   1      15.640 -15.387  -5.349  1.00  0.00    -0.043 A 
ENDROOT
BRANCH   1   8
ATOM      8  C6  MOL A   1      16.699 -16.342  -3.243  1.00  0.00     0.063 C 
BRANCH   8   9
ATOM      9  C5  MOL A   1      17.591 -15.202  -2.721  1.00  0.00     0.051 C 
BRANCH   9  12
ATOM     10  C1  MOL A   1      18.598 -14.399   0.955  1.00  0.00     0.006 C 
ATOM     11  N2  MOL A   1      18.624 -14.517  -0.496  1.00  0.00    -0.359 N 
ATOM     12  C3  MOL A   1      17.540 -15.104  -1.224  1.00  0.00     0.222 C 
ATOM     13  O4  MOL A   1      16.528 -15.541  -0.609  1.00  0.00    -0.275 OA
ENDBRANCH   9  12
ENDBRANCH   8   9
BRANCH   8  14
ATOM     14  N7  MOL A   1      17.468 -17.244  -4.108  1.00  0.00    -0.346 N 
ATOM     15  C8  MOL A   1      17.150 -18.631  -4.248  1.00  0.00     0.258 C 
ATOM     16  O9  MOL A   1      16.185 -19.129  -3.610  1.00  0.00    -0.271 OA
BRANCH  15  17
ATOM     17 C10  MOL A   1      17.953 -19.503  -5.166  1.00  0.00     0.167 C 
BRANCH  17  18
ATOM     18 O11  MOL A   1      17.193 -19.842  -6.324  1.00  0.00    -0.480 OA
BRANCH  18  19
ATOM     19 C12  MOL A   1      17.283 -19.108  -7.510  1.00  0.00     0.166 A 
ATOM     20 C13  MOL A   1      16.209 -18.302  -7.953  1.00  0.00     0.012 A 
ATOM     21 C21  MOL A   1      16.371 -17.520  -9.109  1.00  0.00    -0.054 A 
ATOM     22 C22  MOL A   1      17.559 -17.572  -9.838  1.00  0.00    -0.058 A 
ATOM     23 C23  MOL A   1      18.598 -18.406  -9.427  1.00  0.00    -0.016 A 
ATOM     24 C24  MOL A   1      18.467 -19.184  -8.261  1.00  0.00     0.161 A 
BRANCH  20  25
ATOM     25 C14  MOL A   1      14.887 -18.261  -7.218  1.00  0.00     0.028 C 
BRANCH  25  26
ATOM     26 N15  MOL A   1      13.781 -18.633  -8.124  1.00  0.00    -0.287 NA
ATOM     27 C16  MOL A   1      13.028 -17.450  -8.574  1.00  0.00     0.064 C 
ATOM     28 C17  MOL A   1      11.773 -17.880  -7.841  1.00  0.00     0.272 C 
ATOM     29 F18  MOL A   1      10.724 -18.211  -8.681  1.00  0.00    -0.204 F 
ATOM     30 F19  MOL A   1      11.416 -17.033  -6.804  1.00  0.00    -0.204 F 
ATOM     31 C20  MOL A   1      12.585 -19.077  -7.388  1.00  0.00     0.064 C 
ENDBRANCH  25  26
ENDBRANCH  20  25
BRANCH  24  32
ATOM     32 O25  MOL A   1      19.487 -20.035  -7.814  1.00  0.00    -0.493 OA
ATOM     33 C26  MOL A   1      20.551 -20.516  -8.629  1.00  0.00     0.078 C 
ENDBRANCH  24  32
ENDBRANCH  18  19
ENDBRANCH  17  18
ENDBRANCH  15  17
ENDBRANCH   8  14
ENDBRANCH   1   8
TORSDOF 10
ENDMDL
MODEL 398
REMARK VINA RESULT:    -7.020      5.330      8.726
REMARK INTER + INTRA:         -12.173
REMARK INTER:                 -10.812
REMARK INTRA:                  -1.361
REMARK UNBOUND:                -1.048
REMARK  10 active torsions:
REMARK  status: ('A' for Active; 'I' for Inactive)
REMARK   1   A    between atoms:  C27_1   and   C6_8  
REMARK   2   A    between atoms:  C6_8    and   C5_9  
REMARK   3   A    between atoms:  C5_9    and   C3_12 
REMARK   4   A    between atoms:  C6_8    and   N7_14 
REMARK   5   A    between atoms:  C8_15   and  C10_17 
REMARK   6   A    between atoms: C10_17   and  O11_18 
REMARK   7   A    between atoms: O11_18   and  C12_19 
REMARK   8   A    between atoms: C13_20   and  C14_25 
REMARK   9   A    between atoms: C14_25   and  N15_26 
REMARK   10  A    between atoms: C24_24   and  O25_32 
ROOT
ATOM      1 C27  MOL A   1      14.482 -17.669  -7.387  1.00  0.00    -0.024 A 
ATOM      2 C28  MOL A   1      13.716 -16.582  -7.845  1.00  0.00    -0.057 A 
ATOM      3 C29  MOL A   1      13.899 -15.307  -7.300  1.00  0.00    -0.061 A 
ATOM      4 C30  MOL A   1      14.847 -15.104  -6.293  1.00  0.00    -0.048 A 
ATOM      5 C31  MOL A   1      15.619 -16.176  -5.831  1.00  0.00     0.018 A 
ATOM      6 Br32 MOL A   1      16.931 -15.893  -4.468  1.00  0.00    -0.051 Br
ATOM      7 C33  MOL A   1      15.434 -17.453  -6.370  1.00  0.00    -0.043 A 
ENDROOT
BRANCH   1   8
ATOM      8  C6  MOL A   1      14.228 -19.058  -7.930  1.00  0.00     0.063 C 
BRANCH   8   9
ATOM      9  C5  MOL A   1      15.373 -19.475  -8.870  1.00  0.00     0.051 C 
BRANCH   9  12
ATOM     10  C1  MOL A   1      17.661 -22.236  -7.349  1.00  0.00     0.006 C 
ATOM     11  N2  MOL A   1      17.112 -20.941  -7.725  1.00  0.00    -0.359 N 
ATOM     12  C3  MOL A   1      15.919 -20.826  -8.508  1.00  0.00     0.222 C 
ATOM     13  O4  MOL A   1      15.315 -21.862  -8.896  1.00  0.00    -0.275 OA
ENDBRANCH   9  12
ENDBRANCH   8   9
BRANCH   8  14
ATOM     14  N7  MOL A   1      12.941 -19.101  -8.634  1.00  0.00    -0.346 N 
ATOM     15  C8  MOL A   1      11.779 -19.716  -8.074  1.00  0.00     0.258 C 
ATOM     16  O9  MOL A   1      11.832 -20.260  -6.939  1.00  0.00    -0.271 OA
BRANCH  15  17
ATOM     17 C10  MOL A   1      10.481 -19.708  -8.825  1.00  0.00     0.167 C 
BRANCH  17  18
ATOM     18 O11  MOL A   1       9.564 -20.634  -8.247  1.00  0.00    -0.480 OA
BRANCH  18  19
ATOM     19 C12  MOL A   1       8.533 -21.217  -8.988  1.00  0.00     0.166 A 
ATOM     20 C13  MOL A   1       7.298 -20.553  -9.169  1.00  0.00     0.012 A 
ATOM     21 C21  MOL A   1       6.318 -21.140  -9.987  1.00  0.00    -0.054 A 
ATOM     22 C22  MOL A   1       6.539 -22.385 -10.575  1.00  0.00    -0.058 A 
ATOM     23 C23  MOL A   1       7.739 -23.062 -10.353  1.00  0.00    -0.016 A 
ATOM     24 C24  MOL A   1       8.743 -22.485  -9.554  1.00  0.00     0.161 A 
BRANCH  20  25
ATOM     25 C14  MOL A   1       7.001 -19.226  -8.505  1.00  0.00     0.028 C 
BRANCH  25  26
ATOM     26 N15  MOL A   1       6.640 -18.212  -9.517  1.00  0.00    -0.287 NA
ATOM     27 C16  MOL A   1       7.830 -17.690 -10.209  1.00  0.00     0.064 C 
ATOM     28 C17  MOL A   1       7.650 -16.302  -9.627  1.00  0.00     0.272 C 
ATOM     29 F18  MOL A   1       7.332 -15.341 -10.570  1.00  0.00    -0.204 F 
ATOM     30 F19  MOL A   1       8.663 -15.924  -8.760  1.00  0.00    -0.204 F 
ATOM     31 C20  MOL A   1       6.439 -16.880  -8.921  1.00  0.00     0.064 C 
ENDBRANCH  25  26
ENDBRANCH  20  25
BRANCH  24  32
ATOM     32 O25  MOL A   1       9.963 -23.132  -9.306  1.00  0.00    -0.493 OA
ATOM     33 C26  MOL A   1      10.351 -24.369  -9.893  1.00  0.00     0.078 C 
ENDBRANCH  24  32
ENDBRANCH  18  19
ENDBRANCH  17  18
ENDBRANCH  15  17
ENDBRANCH   8  14
ENDBRANCH   1   8
TORSDOF 10
ENDMDL
MODEL 399
REMARK VINA RESULT:    -7.019      5.858     10.452
REMARK INTER + INTRA:         -12.170
REMARK INTER:                 -11.013
REMARK INTRA:                  -1.157
REMARK UNBOUND:                -1.048
REMARK  10 active torsions:
REMARK  status: ('A' for Active; 'I' for Inactive)
REMARK   1   A    between atoms:  C27_1   and   C6_8  
REMARK   2   A    between atoms:  C6_8    and   C5_9  
REMARK   3   A    between atoms:  C5_9    and   C3_12 
REMARK   4   A    between atoms:  C6_8    and   N7_14 
REMARK   5   A    between atoms:  C8_15   and  C10_17 
REMARK   6   A    between atoms: C10_17   and  O11_18 
REMARK   7   A    between atoms: O11_18   and  C12_19 
REMARK   8   A    between atoms: C13_20   and  C14_25 
REMARK   9   A    between atoms: C14_25   and  N15_26 
REMARK   10  A    between atoms: C24_24   and  O25_32 
ROOT
ATOM      1 C27  MOL A   1       7.678 -17.758  -9.141  1.00  0.00    -0.024 A 
ATOM      2 C28  MOL A   1       6.957 -17.571  -7.948  1.00  0.00    -0.057 A 
ATOM      3 C29  MOL A   1       5.898 -16.658  -7.897  1.00  0.00    -0.061 A 
ATOM      4 C30  MOL A   1       5.549 -15.925  -9.035  1.00  0.00    -0.048 A 
ATOM      5 C31  MOL A   1       6.256 -16.104 -10.229  1.00  0.00     0.018 A 
ATOM      6 Br32 MOL A   1       5.764 -15.116 -11.791  1.00  0.00    -0.051 Br
ATOM      7 C33  MOL A   1       7.319 -17.011 -10.282  1.00  0.00    -0.043 A 
ENDROOT
BRANCH   1   8
ATOM      8  C6  MOL A   1       8.868 -18.693  -9.168  1.00  0.00     0.063 C 
BRANCH   8   9
ATOM      9  C5  MOL A   1       8.499 -20.035  -8.511  1.00  0.00     0.051 C 
BRANCH   9  12
ATOM     10  C1  MOL A   1       6.935 -21.975 -11.505  1.00  0.00     0.006 C 
ATOM     11  N2  MOL A   1       7.192 -20.963 -10.491  1.00  0.00    -0.359 N 
ATOM     12  C3  MOL A   1       8.253 -21.101  -9.539  1.00  0.00     0.222 C 
ATOM     13  O4  MOL A   1       8.993 -22.123  -9.561  1.00  0.00    -0.275 OA
ENDBRANCH   9  12
ENDBRANCH   8   9
BRANCH   8  14
ATOM     14  N7  MOL A   1      10.011 -18.080  -8.482  1.00  0.00    -0.346 N 
ATOM     15  C8  MOL A   1      11.345 -18.156  -8.991  1.00  0.00     0.258 C 
ATOM     16  O9  MOL A   1      11.581 -18.776 -10.062  1.00  0.00    -0.271 OA
BRANCH  15  17
ATOM     17 C10  MOL A   1      12.473 -17.489  -8.264  1.00  0.00     0.167 C 
BRANCH  17  18
ATOM     18 O11  MOL A   1      13.626 -18.328  -8.255  1.00  0.00    -0.480 OA
BRANCH  18  19
ATOM     19 C12  MOL A   1      14.121 -18.896  -7.078  1.00  0.00     0.166 A 
ATOM     20 C13  MOL A   1      14.897 -18.139  -6.171  1.00  0.00     0.012 A 
ATOM     21 C21  MOL A   1      15.306 -18.728  -4.963  1.00  0.00    -0.054 A 
ATOM     22 C22  MOL A   1      14.994 -20.057  -4.681  1.00  0.00    -0.058 A 
ATOM     23 C23  MOL A   1      14.271 -20.818  -5.600  1.00  0.00    -0.016 A 
ATOM     24 C24  MOL A   1      13.832 -20.244  -6.808  1.00  0.00     0.161 A 
BRANCH  20  25
ATOM     25 C14  MOL A   1      15.301 -16.712  -6.466  1.00  0.00     0.028 C 
BRANCH  25  26
ATOM     26 N15  MOL A   1      16.668 -16.667  -7.024  1.00  0.00    -0.287 NA
ATOM     27 C16  MOL A   1      16.688 -16.045  -8.359  1.00  0.00     0.064 C 
ATOM     28 C17  MOL A   1      17.100 -17.337  -9.035  1.00  0.00     0.272 C 
ATOM     29 F18  MOL A   1      18.372 -17.298  -9.580  1.00  0.00    -0.204 F 
ATOM     30 F19  MOL A   1      16.139 -17.850  -9.891  1.00  0.00    -0.204 F 
ATOM     31 C20  MOL A   1      17.055 -17.944  -7.646  1.00  0.00     0.064 C 
ENDBRANCH  25  26
ENDBRANCH  20  25
BRANCH  24  32
ATOM     32 O25  MOL A   1      13.104 -20.974  -7.759  1.00  0.00    -0.493 OA
ATOM     33 C26  MOL A   1      11.781 -21.460  -7.561  1.00  0.00     0.078 C 
ENDBRANCH  24  32
ENDBRANCH  18  19
ENDBRANCH  17  18
ENDBRANCH  15  17
ENDBRANCH   8  14
ENDBRANCH   1   8
TORSDOF 10
ENDMDL
MODEL 400
REMARK VINA RESULT:    -7.019      6.042     10.515
REMARK INTER + INTRA:         -12.170
REMARK INTER:                 -10.642
REMARK INTRA:                  -1.528
REMARK UNBOUND:                -1.048
REMARK  10 active torsions:
REMARK  status: ('A' for Active; 'I' for Inactive)
REMARK   1   A    between atoms:  C27_1   and   C6_8  
REMARK   2   A    between atoms:  C6_8    and   C5_9  
REMARK   3   A    between atoms:  C5_9    and   C3_12 
REMARK   4   A    between atoms:  C6_8    and   N7_14 
REMARK   5   A    between atoms:  C8_15   and  C10_17 
REMARK   6   A    between atoms: C10_17   and  O11_18 
REMARK   7   A    between atoms: O11_18   and  C12_19 
REMARK   8   A    between atoms: C13_20   and  C14_25 
REMARK   9   A    between atoms: C14_25   and  N15_26 
REMARK   10  A    between atoms: C24_24   and  O25_32 
ROOT
ATOM      1 C27  MOL A   1      16.308 -15.987  -4.345  1.00  0.00    -0.024 A 
ATOM      2 C28  MOL A   1      17.359 -15.054  -4.395  1.00  0.00    -0.057 A 
ATOM      3 C29  MOL A   1      18.636 -15.449  -4.808  1.00  0.00    -0.061 A 
ATOM      4 C30  MOL A   1      18.876 -16.776  -5.174  1.00  0.00    -0.048 A 
ATOM      5 C31  MOL A   1      17.838 -17.713  -5.132  1.00  0.00     0.018 A 
ATOM      6 Br32 MOL A   1      18.162 -19.525  -5.655  1.00  0.00    -0.051 Br
ATOM      7 C33  MOL A   1      16.562 -17.324  -4.715  1.00  0.00    -0.043 A 
ENDROOT
BRANCH   1   8
ATOM      8  C6  MOL A   1      14.948 -15.569  -3.828  1.00  0.00     0.063 C 
BRANCH   8   9
ATOM      9  C5  MOL A   1      14.690 -16.203  -2.450  1.00  0.00     0.051 C 
BRANCH   9  12
ATOM     10  C1  MOL A   1      14.207 -14.512   1.026  1.00  0.00     0.006 C 
ATOM     11  N2  MOL A   1      14.441 -15.505  -0.013  1.00  0.00    -0.359 N 
ATOM     12  C3  MOL A   1      14.435 -15.159  -1.402  1.00  0.00     0.222 C 
ATOM     13  O4  MOL A   1      14.216 -13.968  -1.756  1.00  0.00    -0.275 OA
ENDBRANCH   9  12
ENDBRANCH   8   9
BRANCH   8  14
ATOM     14  N7  MOL A   1      13.901 -15.958  -4.779  1.00  0.00    -0.346 N 
ATOM     15  C8  MOL A   1      13.358 -15.050  -5.739  1.00  0.00     0.258 C 
ATOM     16  O9  MOL A   1      13.766 -13.859  -5.789  1.00  0.00    -0.271 OA
BRANCH  15  17
ATOM     17 C10  MOL A   1      12.307 -15.507  -6.706  1.00  0.00     0.167 C 
BRANCH  17  18
ATOM     18 O11  MOL A   1      12.285 -16.930  -6.783  1.00  0.00    -0.480 OA
BRANCH  18  19
ATOM     19 C12  MOL A   1      12.305 -17.607  -8.006  1.00  0.00     0.166 A 
ATOM     20 C13  MOL A   1      11.107 -18.008  -8.639  1.00  0.00     0.012 A 
ATOM     21 C21  MOL A   1      11.171 -18.615  -9.904  1.00  0.00    -0.054 A 
ATOM     22 C22  MOL A   1      12.403 -18.864 -10.509  1.00  0.00    -0.058 A 
ATOM     23 C23  MOL A   1      13.586 -18.513  -9.860  1.00  0.00    -0.016 A 
ATOM     24 C24  MOL A   1      13.547 -17.885  -8.601  1.00  0.00     0.161 A 
BRANCH  20  25
ATOM     25 C14  MOL A   1       9.756 -17.803  -7.990  1.00  0.00     0.028 C 
BRANCH  25  26
ATOM     26 N15  MOL A   1       8.727 -17.535  -9.016  1.00  0.00    -0.287 NA
ATOM     27 C16  MOL A   1       8.169 -16.179  -8.882  1.00  0.00     0.064 C 
ATOM     28 C17  MOL A   1       6.797 -16.701  -8.503  1.00  0.00     0.272 C 
ATOM     29 F18  MOL A   1       5.822 -16.436  -9.449  1.00  0.00    -0.204 F 
ATOM     30 F19  MOL A   1       6.421 -16.391  -7.207  1.00  0.00    -0.204 F 
ATOM     31 C20  MOL A   1       7.411 -18.080  -8.638  1.00  0.00     0.064 C 
ENDBRANCH  25  26
ENDBRANCH  20  25
BRANCH  24  32
ATOM     32 O25  MOL A   1      14.713 -17.517  -7.914  1.00  0.00    -0.493 OA
ATOM     33 C26  MOL A   1      16.031 -17.872  -8.319  1.00  0.00     0.078 C 
ENDBRANCH  24  32
ENDBRANCH  18  19
ENDBRANCH  17  18
ENDBRANCH  15  17
ENDBRANCH   8  14
ENDBRANCH   1   8
TORSDOF 10
ENDMDL
MODEL 401
REMARK VINA RESULT:    -7.019      7.700     12.733
REMARK INTER + INTRA:         -12.170
REMARK INTER:                 -10.676
REMARK INTRA:                  -1.494
REMARK UNBOUND:                -1.048
REMARK  10 active torsions:
REMARK  status: ('A' for Active; 'I' for Inactive)
REMARK   1   A    between atoms:  C27_1   and   C6_8  
REMARK   2   A    between atoms:  C6_8    and   C5_9  
REMARK   3   A    between atoms:  C5_9    and   C3_12 
REMARK   4   A    between atoms:  C6_8    and   N7_14 
REMARK   5   A    between atoms:  C8_15   and  C10_17 
REMARK   6   A    between atoms: C10_17   and  O11_18 
REMARK   7   A    between atoms: O11_18   and  C12_19 
REMARK   8   A    between atoms: C13_20   and  C14_25 
REMARK   9   A    between atoms: C14_25   and  N15_26 
REMARK   10  A    between atoms: C24_24   and  O25_32 
ROOT
ATOM      1 C27  MOL A   1      11.120 -17.902  -8.781  1.00  0.00    -0.024 A 
ATOM      2 C28  MOL A   1      11.116 -18.586 -10.010  1.00  0.00    -0.057 A 
ATOM      3 C29  MOL A   1       9.925 -18.747 -10.726  1.00  0.00    -0.061 A 
ATOM      4 C30  MOL A   1       8.729 -18.229 -10.223  1.00  0.00    -0.048 A 
ATOM      5 C31  MOL A   1       8.719 -17.544  -9.003  1.00  0.00     0.018 A 
ATOM      6 Br32 MOL A   1       7.085 -16.815  -8.326  1.00  0.00    -0.051 Br
ATOM      7 C33  MOL A   1       9.907 -17.385  -8.282  1.00  0.00    -0.043 A 
ENDROOT
BRANCH   1   8
ATOM      8  C6  MOL A   1      12.399 -17.795  -7.978  1.00  0.00     0.063 C 
BRANCH   8   9
ATOM      9  C5  MOL A   1      12.409 -16.481  -7.175  1.00  0.00     0.051 C 
BRANCH   9  12
ATOM     10  C1  MOL A   1      15.733 -14.507  -7.652  1.00  0.00     0.006 C 
ATOM     11  N2  MOL A   1      14.383 -15.018  -7.844  1.00  0.00    -0.359 N 
ATOM     12  C3  MOL A   1      13.807 -15.981  -6.955  1.00  0.00     0.222 C 
ATOM     13  O4  MOL A   1      14.473 -16.416  -5.976  1.00  0.00    -0.275 OA
ENDBRANCH   9  12
ENDBRANCH   8   9
BRANCH   8  14
ATOM     14  N7  MOL A   1      13.564 -17.867  -8.865  1.00  0.00    -0.346 N 
ATOM     15  C8  MOL A   1      14.538 -18.908  -8.773  1.00  0.00     0.258 C 
ATOM     16  O9  MOL A   1      14.425 -19.808  -7.899  1.00  0.00    -0.271 OA
BRANCH  15  17
ATOM     17 C10  MOL A   1      15.697 -18.949  -9.723  1.00  0.00     0.167 C 
BRANCH  17  18
ATOM     18 O11  MOL A   1      16.780 -18.169  -9.223  1.00  0.00    -0.480 OA
BRANCH  18  19
ATOM     19 C12  MOL A   1      17.985 -18.748  -8.814  1.00  0.00     0.166 A 
ATOM     20 C13  MOL A   1      18.265 -18.965  -7.446  1.00  0.00     0.012 A 
ATOM     21 C21  MOL A   1      19.453 -19.622  -7.085  1.00  0.00    -0.054 A 
ATOM     22 C22  MOL A   1      20.370 -20.013  -8.061  1.00  0.00    -0.058 A 
ATOM     23 C23  MOL A   1      20.115 -19.753  -9.407  1.00  0.00    -0.016 A 
ATOM     24 C24  MOL A   1      18.922 -19.114  -9.794  1.00  0.00     0.161 A 
BRANCH  20  25
ATOM     25 C14  MOL A   1      17.320 -18.507  -6.357  1.00  0.00     0.028 C 
BRANCH  25  26
ATOM     26 N15  MOL A   1      17.509 -19.316  -5.136  1.00  0.00    -0.287 NA
ATOM     27 C16  MOL A   1      16.253 -19.956  -4.710  1.00  0.00     0.064 C 
ATOM     28 C17  MOL A   1      16.183 -19.140  -3.435  1.00  0.00     0.272 C 
ATOM     29 F18  MOL A   1      16.338 -19.893  -2.284  1.00  0.00    -0.204 F 
ATOM     30 F19  MOL A   1      15.111 -18.264  -3.392  1.00  0.00    -0.204 F 
ATOM     31 C20  MOL A   1      17.469 -18.495  -3.913  1.00  0.00     0.064 C 
ENDBRANCH  25  26
ENDBRANCH  20  25
BRANCH  24  32
ATOM     32 O25  MOL A   1      18.628 -18.834 -11.137  1.00  0.00    -0.493 OA
ATOM     33 C26  MOL A   1      18.697 -19.786 -12.192  1.00  0.00     0.078 C 
ENDBRANCH  24  32
ENDBRANCH  18  19
ENDBRANCH  17  18
ENDBRANCH  15  17
ENDBRANCH   8  14
ENDBRANCH   1   8
TORSDOF 10
ENDMDL
MODEL 402
REMARK VINA RESULT:    -7.018      5.255     10.085
REMARK INTER + INTRA:         -12.169
REMARK INTER:                 -10.854
REMARK INTRA:                  -1.315
REMARK UNBOUND:                -1.048
REMARK  10 active torsions:
REMARK  status: ('A' for Active; 'I' for Inactive)
REMARK   1   A    between atoms:  C27_1   and   C6_8  
REMARK   2   A    between atoms:  C6_8    and   C5_9  
REMARK   3   A    between atoms:  C5_9    and   C3_12 
REMARK   4   A    between atoms:  C6_8    and   N7_14 
REMARK   5   A    between atoms:  C8_15   and  C10_17 
REMARK   6   A    between atoms: C10_17   and  O11_18 
REMARK   7   A    between atoms: O11_18   and  C12_19 
REMARK   8   A    between atoms: C13_20   and  C14_25 
REMARK   9   A    between atoms: C14_25   and  N15_26 
REMARK   10  A    between atoms: C24_24   and  O25_32 
ROOT
ATOM      1 C27  MOL A   1       8.855 -20.526  -9.039  1.00  0.00    -0.024 A 
ATOM      2 C28  MOL A   1       7.528 -20.882  -8.738  1.00  0.00    -0.057 A 
ATOM      3 C29  MOL A   1       7.044 -22.152  -9.072  1.00  0.00    -0.061 A 
ATOM      4 C30  MOL A   1       7.877 -23.076  -9.708  1.00  0.00    -0.048 A 
ATOM      5 C31  MOL A   1       9.200 -22.736 -10.009  1.00  0.00     0.018 A 
ATOM      6 Br32 MOL A   1      10.347 -24.009 -10.860  1.00  0.00    -0.051 Br
ATOM      7 C33  MOL A   1       9.687 -21.466  -9.682  1.00  0.00    -0.043 A 
ENDROOT
BRANCH   1   8
ATOM      8  C6  MOL A   1       9.350 -19.127  -8.741  1.00  0.00     0.063 C 
BRANCH   8   9
ATOM      9  C5  MOL A   1       8.958 -18.174  -9.885  1.00  0.00     0.051 C 
BRANCH   9  12
ATOM     10  C1  MOL A   1       6.023 -16.591  -7.872  1.00  0.00     0.006 C 
ATOM     11  N2  MOL A   1       7.070 -17.501  -8.313  1.00  0.00    -0.359 N 
ATOM     12  C3  MOL A   1       7.878 -17.221  -9.461  1.00  0.00     0.222 C 
ATOM     13  O4  MOL A   1       7.689 -16.165 -10.125  1.00  0.00    -0.275 OA
ENDBRANCH   9  12
ENDBRANCH   8   9
BRANCH   8  14
ATOM     14  N7  MOL A   1      10.804 -19.132  -8.549  1.00  0.00    -0.346 N 
ATOM     15  C8  MOL A   1      11.417 -19.544  -7.325  1.00  0.00     0.258 C 
ATOM     16  O9  MOL A   1      10.707 -19.913  -6.352  1.00  0.00    -0.271 OA
BRANCH  15  17
ATOM     17 C10  MOL A   1      12.910 -19.555  -7.191  1.00  0.00     0.167 C 
BRANCH  17  18
ATOM     18 O11  MOL A   1      13.526 -19.281  -8.447  1.00  0.00    -0.480 OA
BRANCH  18  19
ATOM     19 C12  MOL A   1      14.891 -19.004  -8.559  1.00  0.00     0.166 A 
ATOM     20 C13  MOL A   1      15.382 -17.684  -8.436  1.00  0.00     0.012 A 
ATOM     21 C21  MOL A   1      16.769 -17.462  -8.476  1.00  0.00    -0.054 A 
ATOM     22 C22  MOL A   1      17.650 -18.523  -8.683  1.00  0.00    -0.058 A 
ATOM     23 C23  MOL A   1      17.160 -19.818  -8.855  1.00  0.00    -0.016 A 
ATOM     24 C24  MOL A   1      15.777 -20.068  -8.799  1.00  0.00     0.161 A 
BRANCH  20  25
ATOM     25 C14  MOL A   1      14.454 -16.502  -8.264  1.00  0.00     0.028 C 
BRANCH  25  26
ATOM     26 N15  MOL A   1      14.853 -15.700  -7.089  1.00  0.00    -0.287 NA
ATOM     27 C16  MOL A   1      14.261 -16.227  -5.847  1.00  0.00     0.064 C 
ATOM     28 C17  MOL A   1      13.404 -14.993  -5.646  1.00  0.00     0.272 C 
ATOM     29 F18  MOL A   1      13.756 -14.246  -4.536  1.00  0.00    -0.204 F 
ATOM     30 F19  MOL A   1      12.044 -15.236  -5.750  1.00  0.00    -0.204 F 
ATOM     31 C20  MOL A   1      14.026 -14.491  -6.935  1.00  0.00     0.064 C 
ENDBRANCH  25  26
ENDBRANCH  20  25
BRANCH  24  32
ATOM     32 O25  MOL A   1      15.244 -21.354  -8.967  1.00  0.00    -0.493 OA
ATOM     33 C26  MOL A   1      16.011 -22.554  -8.942  1.00  0.00     0.078 C 
ENDBRANCH  24  32
ENDBRANCH  18  19
ENDBRANCH  17  18
ENDBRANCH  15  17
ENDBRANCH   8  14
ENDBRANCH   1   8
TORSDOF 10
ENDMDL
MODEL 403
REMARK VINA RESULT:    -7.018      9.007     12.224
REMARK INTER + INTRA:         -12.168
REMARK INTER:                 -10.547
REMARK INTRA:                  -1.622
REMARK UNBOUND:                -1.048
REMARK  10 active torsions:
REMARK  status: ('A' for Active; 'I' for Inactive)
REMARK   1   A    between atoms:  C27_1   and   C6_8  
REMARK   2   A    between atoms:  C6_8    and   C5_9  
REMARK   3   A    between atoms:  C5_9    and   C3_12 
REMARK   4   A    between atoms:  C6_8    and   N7_14 
REMARK   5   A    between atoms:  C8_15   and  C10_17 
REMARK   6   A    between atoms: C10_17   and  O11_18 
REMARK   7   A    between atoms: O11_18   and  C12_19 
REMARK   8   A    between atoms: C13_20   and  C14_25 
REMARK   9   A    between atoms: C14_25   and  N15_26 
REMARK   10  A    between atoms: C24_24   and  O25_32 
ROOT
ATOM      1 C27  MOL A   1      18.221 -17.955 -11.176  1.00  0.00    -0.024 A 
ATOM      2 C28  MOL A   1      18.769 -16.660 -11.179  1.00  0.00    -0.057 A 
ATOM      3 C29  MOL A   1      18.735 -15.879 -12.340  1.00  0.00    -0.061 A 
ATOM      4 C30  MOL A   1      18.155 -16.384 -13.507  1.00  0.00    -0.048 A 
ATOM      5 C31  MOL A   1      17.603 -17.670 -13.517  1.00  0.00     0.018 A 
ATOM      6 Br32 MOL A   1      16.790 -18.351 -15.109  1.00  0.00    -0.051 Br
ATOM      7 C33  MOL A   1      17.640 -18.455 -12.359  1.00  0.00    -0.043 A 
ENDROOT
BRANCH   1   8
ATOM      8  C6  MOL A   1      18.327 -18.819  -9.938  1.00  0.00     0.063 C 
BRANCH   8   9
ATOM      9  C5  MOL A   1      18.195 -20.305 -10.319  1.00  0.00     0.051 C 
BRANCH   9  12
ATOM     10  C1  MOL A   1      18.994 -22.867  -7.496  1.00  0.00     0.006 C 
ATOM     11  N2  MOL A   1      18.278 -21.996  -8.416  1.00  0.00    -0.359 N 
ATOM     12  C3  MOL A   1      18.964 -21.185  -9.376  1.00  0.00     0.222 C 
ATOM     13  O4  MOL A   1      20.223 -21.208  -9.439  1.00  0.00    -0.275 OA
ENDBRANCH   9  12
ENDBRANCH   8   9
BRANCH   8  14
ATOM     14  N7  MOL A   1      17.295 -18.443  -8.966  1.00  0.00    -0.346 N 
ATOM     15  C8  MOL A   1      17.564 -18.323  -7.567  1.00  0.00     0.258 C 
ATOM     16  O9  MOL A   1      18.719 -18.552  -7.120  1.00  0.00    -0.271 OA
BRANCH  15  17
ATOM     17 C10  MOL A   1      16.478 -17.909  -6.619  1.00  0.00     0.167 C 
BRANCH  17  18
ATOM     18 O11  MOL A   1      16.258 -16.502  -6.696  1.00  0.00    -0.480 OA
BRANCH  18  19
ATOM     19 C12  MOL A   1      15.314 -15.854  -5.896  1.00  0.00     0.166 A 
ATOM     20 C13  MOL A   1      13.958 -15.767  -6.289  1.00  0.00     0.012 A 
ATOM     21 C21  MOL A   1      13.028 -15.177  -5.418  1.00  0.00    -0.054 A 
ATOM     22 C22  MOL A   1      13.442 -14.640  -4.199  1.00  0.00    -0.058 A 
ATOM     23 C23  MOL A   1      14.788 -14.682  -3.835  1.00  0.00    -0.016 A 
ATOM     24 C24  MOL A   1      15.735 -15.286  -4.683  1.00  0.00     0.161 A 
BRANCH  20  25
ATOM     25 C14  MOL A   1      13.482 -16.291  -7.626  1.00  0.00     0.028 C 
BRANCH  25  26
ATOM     26 N15  MOL A   1      12.587 -17.451  -7.436  1.00  0.00    -0.287 NA
ATOM     27 C16  MOL A   1      13.133 -18.665  -8.066  1.00  0.00     0.064 C 
ATOM     28 C17  MOL A   1      12.012 -18.729  -9.085  1.00  0.00     0.272 C 
ATOM     29 F18  MOL A   1      11.180 -19.824  -8.928  1.00  0.00    -0.204 F 
ATOM     30 F19  MOL A   1      12.432 -18.525 -10.389  1.00  0.00    -0.204 F 
ATOM     31 C20  MOL A   1      11.489 -17.472  -8.418  1.00  0.00     0.064 C 
ENDBRANCH  25  26
ENDBRANCH  20  25
BRANCH  24  32
ATOM     32 O25  MOL A   1      17.097 -15.348  -4.354  1.00  0.00    -0.493 OA
ATOM     33 C26  MOL A   1      17.673 -16.321  -3.489  1.00  0.00     0.078 C 
ENDBRANCH  24  32
ENDBRANCH  18  19
ENDBRANCH  17  18
ENDBRANCH  15  17
ENDBRANCH   8  14
ENDBRANCH   1   8
TORSDOF 10
ENDMDL
MODEL 404
REMARK VINA RESULT:    -7.017      8.096     12.199
REMARK INTER + INTRA:         -12.168
REMARK INTER:                 -10.225
REMARK INTRA:                  -1.943
REMARK UNBOUND:                -1.048
REMARK  10 active torsions:
REMARK  status: ('A' for Active; 'I' for Inactive)
REMARK   1   A    between atoms:  C27_1   and   C6_8  
REMARK   2   A    between atoms:  C6_8    and   C5_9  
REMARK   3   A    between atoms:  C5_9    and   C3_12 
REMARK   4   A    between atoms:  C6_8    and   N7_14 
REMARK   5   A    between atoms:  C8_15   and  C10_17 
REMARK   6   A    between atoms: C10_17   and  O11_18 
REMARK   7   A    between atoms: O11_18   and  C12_19 
REMARK   8   A    between atoms: C13_20   and  C14_25 
REMARK   9   A    between atoms: C14_25   and  N15_26 
REMARK   10  A    between atoms: C24_24   and  O25_32 
ROOT
ATOM      1 C27  MOL A   1      15.049 -16.905  -2.954  1.00  0.00    -0.024 A 
ATOM      2 C28  MOL A   1      14.968 -16.302  -4.223  1.00  0.00    -0.057 A 
ATOM      3 C29  MOL A   1      14.856 -14.913  -4.341  1.00  0.00    -0.061 A 
ATOM      4 C30  MOL A   1      14.824 -14.112  -3.196  1.00  0.00    -0.048 A 
ATOM      5 C31  MOL A   1      14.907 -14.698  -1.928  1.00  0.00     0.018 A 
ATOM      6 Br32 MOL A   1      14.885 -13.600  -0.362  1.00  0.00    -0.051 Br
ATOM      7 C33  MOL A   1      15.013 -16.088  -1.806  1.00  0.00    -0.043 A 
ENDROOT
BRANCH   1   8
ATOM      8  C6  MOL A   1      15.096 -18.413  -2.834  1.00  0.00     0.063 C 
BRANCH   8   9
ATOM      9  C5  MOL A   1      15.755 -18.814  -1.502  1.00  0.00     0.051 C 
BRANCH   9  12
ATOM     10  C1  MOL A   1      13.114 -19.596   1.253  1.00  0.00     0.006 C 
ATOM     11  N2  MOL A   1      14.053 -18.892   0.392  1.00  0.00    -0.359 N 
ATOM     12  C3  MOL A   1      14.802 -19.571  -0.622  1.00  0.00     0.222 C 
ATOM     13  O4  MOL A   1      14.662 -20.814  -0.786  1.00  0.00    -0.275 OA
ENDBRANCH   9  12
ENDBRANCH   8   9
BRANCH   8  14
ATOM     14  N7  MOL A   1      15.827 -18.991  -3.966  1.00  0.00    -0.346 N 
ATOM     15  C8  MOL A   1      15.268 -20.002  -4.807  1.00  0.00     0.258 C 
ATOM     16  O9  MOL A   1      14.108 -20.441  -4.587  1.00  0.00    -0.271 OA
BRANCH  15  17
ATOM     17 C10  MOL A   1      16.049 -20.540  -5.969  1.00  0.00     0.167 C 
BRANCH  17  18
ATOM     18 O11  MOL A   1      15.588 -19.965  -7.189  1.00  0.00    -0.480 OA
BRANCH  18  19
ATOM     19 C12  MOL A   1      15.738 -18.605  -7.471  1.00  0.00     0.166 A 
ATOM     20 C13  MOL A   1      14.615 -17.755  -7.594  1.00  0.00     0.012 A 
ATOM     21 C21  MOL A   1      14.815 -16.380  -7.799  1.00  0.00    -0.054 A 
ATOM     22 C22  MOL A   1      16.104 -15.864  -7.930  1.00  0.00    -0.058 A 
ATOM     23 C23  MOL A   1      17.209 -16.712  -7.859  1.00  0.00    -0.016 A 
ATOM     24 C24  MOL A   1      17.035 -18.090  -7.634  1.00  0.00     0.161 A 
BRANCH  20  25
ATOM     25 C14  MOL A   1      13.201 -18.286  -7.511  1.00  0.00     0.028 C 
BRANCH  25  26
ATOM     26 N15  MOL A   1      12.265 -17.374  -8.199  1.00  0.00    -0.287 NA
ATOM     27 C16  MOL A   1      11.113 -17.035  -7.347  1.00  0.00     0.064 C 
ATOM     28 C17  MOL A   1      10.136 -17.754  -8.257  1.00  0.00     0.272 C 
ATOM     29 F18  MOL A   1       9.242 -16.909  -8.890  1.00  0.00    -0.204 F 
ATOM     30 F19  MOL A   1       9.544 -18.863  -7.674  1.00  0.00    -0.204 F 
ATOM     31 C20  MOL A   1      11.349 -18.093  -9.101  1.00  0.00     0.064 C 
ENDBRANCH  25  26
ENDBRANCH  20  25
BRANCH  24  32
ATOM     32 O25  MOL A   1      18.119 -18.976  -7.557  1.00  0.00    -0.493 OA
ATOM     33 C26  MOL A   1      19.062 -19.005  -6.491  1.00  0.00     0.078 C 
ENDBRANCH  24  32
ENDBRANCH  18  19
ENDBRANCH  17  18
ENDBRANCH  15  17
ENDBRANCH   8  14
ENDBRANCH   1   8
TORSDOF 10
ENDMDL
MODEL 405
REMARK VINA RESULT:    -7.014      8.069     12.385
REMARK INTER + INTRA:         -12.163
REMARK INTER:                 -10.084
REMARK INTRA:                  -2.079
REMARK UNBOUND:                -1.048
REMARK  10 active torsions:
REMARK  status: ('A' for Active; 'I' for Inactive)
REMARK   1   A    between atoms:  C27_1   and   C6_8  
REMARK   2   A    between atoms:  C6_8    and   C5_9  
REMARK   3   A    between atoms:  C5_9    and   C3_12 
REMARK   4   A    between atoms:  C6_8    and   N7_14 
REMARK   5   A    between atoms:  C8_15   and  C10_17 
REMARK   6   A    between atoms: C10_17   and  O11_18 
REMARK   7   A    between atoms: O11_18   and  C12_19 
REMARK   8   A    between atoms: C13_20   and  C14_25 
REMARK   9   A    between atoms: C14_25   and  N15_26 
REMARK   10  A    between atoms: C24_24   and  O25_32 
ROOT
ATOM      1 C27  MOL A   1      15.728 -17.890  -3.031  1.00  0.00    -0.024 A 
ATOM      2 C28  MOL A   1      14.878 -16.934  -2.445  1.00  0.00    -0.057 A 
ATOM      3 C29  MOL A   1      15.230 -15.580  -2.444  1.00  0.00    -0.061 A 
ATOM      4 C30  MOL A   1      16.431 -15.168  -3.028  1.00  0.00    -0.048 A 
ATOM      5 C31  MOL A   1      17.284 -16.108  -3.617  1.00  0.00     0.018 A 
ATOM      6 Br32 MOL A   1      18.917 -15.539  -4.435  1.00  0.00    -0.051 Br
ATOM      7 C33  MOL A   1      16.938 -17.463  -3.615  1.00  0.00    -0.043 A 
ENDROOT
BRANCH   1   8
ATOM      8  C6  MOL A   1      15.375 -19.360  -2.963  1.00  0.00     0.063 C 
BRANCH   8   9
ATOM      9  C5  MOL A   1      16.020 -20.000  -1.721  1.00  0.00     0.051 C 
BRANCH   9  12
ATOM     10  C1  MOL A   1      13.263 -21.424   0.634  1.00  0.00     0.006 C 
ATOM     11  N2  MOL A   1      14.215 -21.278  -0.457  1.00  0.00    -0.359 N 
ATOM     12  C3  MOL A   1      15.040 -20.116  -0.589  1.00  0.00     0.222 C 
ATOM     13  O4  MOL A   1      14.950 -19.178   0.250  1.00  0.00    -0.275 OA
ENDBRANCH   9  12
ENDBRANCH   8   9
BRANCH   8  14
ATOM     14  N7  MOL A   1      15.813 -20.045  -4.184  1.00  0.00    -0.346 N 
ATOM     15  C8  MOL A   1      14.906 -20.731  -5.050  1.00  0.00     0.258 C 
ATOM     16  O9  MOL A   1      13.678 -20.775  -4.776  1.00  0.00    -0.271 OA
BRANCH  15  17
ATOM     17 C10  MOL A   1      15.404 -21.392  -6.299  1.00  0.00     0.167 C 
BRANCH  17  18
ATOM     18 O11  MOL A   1      15.182 -20.553  -7.431  1.00  0.00    -0.480 OA
BRANCH  18  19
ATOM     19 C12  MOL A   1      15.503 -19.193  -7.419  1.00  0.00     0.166 A 
ATOM     20 C13  MOL A   1      14.493 -18.204  -7.408  1.00  0.00     0.012 A 
ATOM     21 C21  MOL A   1      14.860 -16.851  -7.316  1.00  0.00    -0.054 A 
ATOM     22 C22  MOL A   1      16.205 -16.483  -7.286  1.00  0.00    -0.058 A 
ATOM     23 C23  MOL A   1      17.200 -17.458  -7.348  1.00  0.00    -0.016 A 
ATOM     24 C24  MOL A   1      16.857 -18.821  -7.420  1.00  0.00     0.161 A 
BRANCH  20  25
ATOM     25 C14  MOL A   1      13.026 -18.563  -7.493  1.00  0.00     0.028 C 
BRANCH  25  26
ATOM     26 N15  MOL A   1      12.249 -17.430  -8.036  1.00  0.00    -0.287 NA
ATOM     27 C16  MOL A   1      11.110 -17.088  -7.167  1.00  0.00     0.064 C 
ATOM     28 C17  MOL A   1      10.093 -17.506  -8.212  1.00  0.00     0.272 C 
ATOM     29 F18  MOL A   1       9.346 -16.454  -8.712  1.00  0.00    -0.204 F 
ATOM     30 F19  MOL A   1       9.337 -18.607  -7.845  1.00  0.00    -0.204 F 
ATOM     31 C20  MOL A   1      11.292 -17.858  -9.071  1.00  0.00     0.064 C 
ENDBRANCH  25  26
ENDBRANCH  20  25
BRANCH  24  32
ATOM     32 O25  MOL A   1      17.827 -19.831  -7.485  1.00  0.00    -0.493 OA
ATOM     33 C26  MOL A   1      19.222 -19.623  -7.286  1.00  0.00     0.078 C 
ENDBRANCH  24  32
ENDBRANCH  18  19
ENDBRANCH  17  18
ENDBRANCH  15  17
ENDBRANCH   8  14
ENDBRANCH   1   8
TORSDOF 10
ENDMDL
MODEL 406
REMARK VINA RESULT:    -7.010     10.844     13.426
REMARK INTER + INTRA:         -12.157
REMARK INTER:                 -10.128
REMARK INTRA:                  -2.029
REMARK UNBOUND:                -1.048
REMARK  10 active torsions:
REMARK  status: ('A' for Active; 'I' for Inactive)
REMARK   1   A    between atoms:  C27_1   and   C6_8  
REMARK   2   A    between atoms:  C6_8    and   C5_9  
REMARK   3   A    between atoms:  C5_9    and   C3_12 
REMARK   4   A    between atoms:  C6_8    and   N7_14 
REMARK   5   A    between atoms:  C8_15   and  C10_17 
REMARK   6   A    between atoms: C10_17   and  O11_18 
REMARK   7   A    between atoms: O11_18   and  C12_19 
REMARK   8   A    between atoms: C13_20   and  C14_25 
REMARK   9   A    between atoms: C14_25   and  N15_26 
REMARK   10  A    between atoms: C24_24   and  O25_32 
ROOT
ATOM      1 C27  MOL A   1      15.878 -17.749  -3.331  1.00  0.00    -0.024 A 
ATOM      2 C28  MOL A   1      15.014 -16.720  -2.913  1.00  0.00    -0.057 A 
ATOM      3 C29  MOL A   1      15.426 -15.384  -2.969  1.00  0.00    -0.061 A 
ATOM      4 C30  MOL A   1      16.701 -15.062  -3.441  1.00  0.00    -0.048 A 
ATOM      5 C31  MOL A   1      17.569 -16.076  -3.862  1.00  0.00     0.018 A 
ATOM      6 Br32 MOL A   1      19.307 -15.633  -4.529  1.00  0.00    -0.051 Br
ATOM      7 C33  MOL A   1      17.163 -17.413  -3.803  1.00  0.00    -0.043 A 
ENDROOT
BRANCH   1   8
ATOM      8  C6  MOL A   1      15.452 -19.195  -3.199  1.00  0.00     0.063 C 
BRANCH   8   9
ATOM      9  C5  MOL A   1      15.993 -19.786  -1.885  1.00  0.00     0.051 C 
BRANCH   9  12
ATOM     10  C1  MOL A   1      13.446 -18.959   0.944  1.00  0.00     0.006 C 
ATOM     11  N2  MOL A   1      14.505 -18.839  -0.048  1.00  0.00    -0.359 N 
ATOM     12  C3  MOL A   1      14.904 -19.945  -0.863  1.00  0.00     0.222 C 
ATOM     13  O4  MOL A   1      14.340 -21.065  -0.730  1.00  0.00    -0.275 OA
ENDBRANCH   9  12
ENDBRANCH   8   9
BRANCH   8  14
ATOM     14  N7  MOL A   1      15.928 -19.971  -4.349  1.00  0.00    -0.346 N 
ATOM     15  C8  MOL A   1      15.049 -20.736  -5.177  1.00  0.00     0.258 C 
ATOM     16  O9  MOL A   1      13.815 -20.773  -4.929  1.00  0.00    -0.271 OA
BRANCH  15  17
ATOM     17 C10  MOL A   1      15.585 -21.491  -6.356  1.00  0.00     0.167 C 
BRANCH  17  18
ATOM     18 O11  MOL A   1      15.486 -20.703  -7.540  1.00  0.00    -0.480 OA
BRANCH  18  19
ATOM     19 C12  MOL A   1      16.614 -20.181  -8.180  1.00  0.00     0.166 A 
ATOM     20 C13  MOL A   1      16.952 -18.813  -8.065  1.00  0.00     0.012 A 
ATOM     21 C21  MOL A   1      18.137 -18.349  -8.659  1.00  0.00    -0.054 A 
ATOM     22 C22  MOL A   1      18.947 -19.214  -9.395  1.00  0.00    -0.058 A 
ATOM     23 C23  MOL A   1      18.585 -20.552  -9.548  1.00  0.00    -0.016 A 
ATOM     24 C24  MOL A   1      17.413 -21.045  -8.946  1.00  0.00     0.161 A 
BRANCH  20  25
ATOM     25 C14  MOL A   1      16.071 -17.834  -7.321  1.00  0.00     0.028 C 
BRANCH  25  26
ATOM     26 N15  MOL A   1      15.932 -16.579  -8.089  1.00  0.00    -0.287 NA
ATOM     27 C16  MOL A   1      16.263 -15.403  -7.267  1.00  0.00     0.064 C 
ATOM     28 C17  MOL A   1      14.840 -14.882  -7.309  1.00  0.00     0.272 C 
ATOM     29 F18  MOL A   1      14.703 -13.695  -8.009  1.00  0.00    -0.204 F 
ATOM     30 F19  MOL A   1      14.208 -14.883  -6.076  1.00  0.00    -0.204 F 
ATOM     31 C20  MOL A   1      14.536 -16.112  -8.142  1.00  0.00     0.064 C 
ENDBRANCH  25  26
ENDBRANCH  20  25
BRANCH  24  32
ATOM     32 O25  MOL A   1      17.013 -22.383  -9.077  1.00  0.00    -0.493 OA
ATOM     33 C26  MOL A   1      17.746 -23.377  -9.786  1.00  0.00     0.078 C 
ENDBRANCH  24  32
ENDBRANCH  18  19
ENDBRANCH  17  18
ENDBRANCH  15  17
ENDBRANCH   8  14
ENDBRANCH   1   8
TORSDOF 10
ENDMDL
MODEL 407
REMARK VINA RESULT:    -7.008      5.143      9.748
REMARK INTER + INTRA:         -12.153
REMARK INTER:                 -10.744
REMARK INTRA:                  -1.410
REMARK UNBOUND:                -1.048
REMARK  10 active torsions:
REMARK  status: ('A' for Active; 'I' for Inactive)
REMARK   1   A    between atoms:  C27_1   and   C6_8  
REMARK   2   A    between atoms:  C6_8    and   C5_9  
REMARK   3   A    between atoms:  C5_9    and   C3_12 
REMARK   4   A    between atoms:  C6_8    and   N7_14 
REMARK   5   A    between atoms:  C8_15   and  C10_17 
REMARK   6   A    between atoms: C10_17   and  O11_18 
REMARK   7   A    between atoms: O11_18   and  C12_19 
REMARK   8   A    between atoms: C13_20   and  C14_25 
REMARK   9   A    between atoms: C14_25   and  N15_26 
REMARK   10  A    between atoms: C24_24   and  O25_32 
ROOT
ATOM      1 C27  MOL A   1       5.743 -17.084  -8.434  1.00  0.00    -0.024 A 
ATOM      2 C28  MOL A   1       5.192 -17.049  -7.140  1.00  0.00    -0.057 A 
ATOM      3 C29  MOL A   1       4.215 -16.102  -6.812  1.00  0.00    -0.061 A 
ATOM      4 C30  MOL A   1       3.780 -15.183  -7.771  1.00  0.00    -0.048 A 
ATOM      5 C31  MOL A   1       4.318 -15.209  -9.062  1.00  0.00     0.018 A 
ATOM      6 Br32 MOL A   1       3.706 -13.964 -10.380  1.00  0.00    -0.051 Br
ATOM      7 C33  MOL A   1       5.298 -16.151  -9.392  1.00  0.00    -0.043 A 
ENDROOT
BRANCH   1   8
ATOM      8  C6  MOL A   1       6.850 -18.064  -8.759  1.00  0.00     0.063 C 
BRANCH   8   9
ATOM      9  C5  MOL A   1       6.487 -19.464  -8.232  1.00  0.00     0.051 C 
BRANCH   9  12
ATOM     10  C1  MOL A   1       6.778 -21.459 -11.565  1.00  0.00     0.006 C 
ATOM     11  N2  MOL A   1       7.057 -20.544 -10.467  1.00  0.00    -0.359 N 
ATOM     12  C3  MOL A   1       6.166 -20.408  -9.354  1.00  0.00     0.222 C 
ATOM     13  O4  MOL A   1       5.104 -21.086  -9.308  1.00  0.00    -0.275 OA
ENDBRANCH   9  12
ENDBRANCH   8   9
BRANCH   8  14
ATOM     14  N7  MOL A   1       8.118 -17.607  -8.181  1.00  0.00    -0.346 N 
ATOM     15  C8  MOL A   1       9.343 -17.606  -8.918  1.00  0.00     0.258 C 
ATOM     16  O9  MOL A   1       9.369 -18.017 -10.108  1.00  0.00    -0.271 OA
BRANCH  15  17
ATOM     17 C10  MOL A   1      10.607 -17.104  -8.287  1.00  0.00     0.167 C 
BRANCH  17  18
ATOM     18 O11  MOL A   1      11.739 -17.781  -8.828  1.00  0.00    -0.480 OA
BRANCH  18  19
ATOM     19 C12  MOL A   1      12.477 -18.705  -8.083  1.00  0.00     0.166 A 
ATOM     20 C13  MOL A   1      13.541 -18.289  -7.251  1.00  0.00     0.012 A 
ATOM     21 C21  MOL A   1      14.205 -19.241  -6.459  1.00  0.00    -0.054 A 
ATOM     22 C22  MOL A   1      13.851 -20.588  -6.527  1.00  0.00    -0.058 A 
ATOM     23 C23  MOL A   1      12.834 -21.004  -7.387  1.00  0.00    -0.016 A 
ATOM     24 C24  MOL A   1      12.142 -20.065  -8.175  1.00  0.00     0.161 A 
BRANCH  20  25
ATOM     25 C14  MOL A   1      13.988 -16.845  -7.191  1.00  0.00     0.028 C 
BRANCH  25  26
ATOM     26 N15  MOL A   1      15.303 -16.739  -6.527  1.00  0.00    -0.287 NA
ATOM     27 C16  MOL A   1      15.575 -15.362  -6.080  1.00  0.00     0.064 C 
ATOM     28 C17  MOL A   1      16.725 -15.195  -7.053  1.00  0.00     0.272 C 
ATOM     29 F18  MOL A   1      17.960 -15.074  -6.440  1.00  0.00    -0.204 F 
ATOM     30 F19  MOL A   1      16.491 -14.246  -8.035  1.00  0.00    -0.204 F 
ATOM     31 C20  MOL A   1      16.406 -16.610  -7.495  1.00  0.00     0.064 C 
ENDBRANCH  25  26
ENDBRANCH  20  25
BRANCH  24  32
ATOM     32 O25  MOL A   1      11.114 -20.442  -9.052  1.00  0.00    -0.493 OA
ATOM     33 C26  MOL A   1      10.059 -21.338  -8.719  1.00  0.00     0.078 C 
ENDBRANCH  24  32
ENDBRANCH  18  19
ENDBRANCH  17  18
ENDBRANCH  15  17
ENDBRANCH   8  14
ENDBRANCH   1   8
TORSDOF 10
ENDMDL
MODEL 408
REMARK VINA RESULT:    -7.006      5.343      9.976
REMARK INTER + INTRA:         -12.151
REMARK INTER:                 -11.014
REMARK INTRA:                  -1.137
REMARK UNBOUND:                -1.048
REMARK  10 active torsions:
REMARK  status: ('A' for Active; 'I' for Inactive)
REMARK   1   A    between atoms:  C27_1   and   C6_8  
REMARK   2   A    between atoms:  C6_8    and   C5_9  
REMARK   3   A    between atoms:  C5_9    and   C3_12 
REMARK   4   A    between atoms:  C6_8    and   N7_14 
REMARK   5   A    between atoms:  C8_15   and  C10_17 
REMARK   6   A    between atoms: C10_17   and  O11_18 
REMARK   7   A    between atoms: O11_18   and  C12_19 
REMARK   8   A    between atoms: C13_20   and  C14_25 
REMARK   9   A    between atoms: C14_25   and  N15_26 
REMARK   10  A    between atoms: C24_24   and  O25_32 
ROOT
ATOM      1 C27  MOL A   1       6.163 -16.099  -9.823  1.00  0.00    -0.024 A 
ATOM      2 C28  MOL A   1       6.503 -15.542 -11.069  1.00  0.00    -0.057 A 
ATOM      3 C29  MOL A   1       5.635 -14.649 -11.706  1.00  0.00    -0.061 A 
ATOM      4 C30  MOL A   1       4.421 -14.303 -11.106  1.00  0.00    -0.048 A 
ATOM      5 C31  MOL A   1       4.072 -14.848  -9.865  1.00  0.00     0.018 A 
ATOM      6 Br32 MOL A   1       2.419 -14.357  -9.035  1.00  0.00    -0.051 Br
ATOM      7 C33  MOL A   1       4.935 -15.745  -9.229  1.00  0.00    -0.043 A 
ENDROOT
BRANCH   1   8
ATOM      8  C6  MOL A   1       7.073 -17.120  -9.176  1.00  0.00     0.063 C 
BRANCH   8   9
ATOM      9  C5  MOL A   1       6.273 -17.992  -8.192  1.00  0.00     0.051 C 
BRANCH   9  12
ATOM     10  C1  MOL A   1       5.691 -21.843  -8.143  1.00  0.00     0.006 C 
ATOM     11  N2  MOL A   1       5.735 -20.442  -7.751  1.00  0.00    -0.359 N 
ATOM     12  C3  MOL A   1       6.252 -19.430  -8.622  1.00  0.00     0.222 C 
ATOM     13  O4  MOL A   1       6.691 -19.742  -9.762  1.00  0.00    -0.275 OA
ENDBRANCH   9  12
ENDBRANCH   8   9
BRANCH   8  14
ATOM     14  N7  MOL A   1       8.182 -16.449  -8.488  1.00  0.00    -0.346 N 
ATOM     15  C8  MOL A   1       9.433 -17.092  -8.236  1.00  0.00     0.258 C 
ATOM     16  O9  MOL A   1       9.618 -18.284  -8.598  1.00  0.00    -0.271 OA
BRANCH  15  17
ATOM     17 C10  MOL A   1      10.542 -16.351  -7.552  1.00  0.00     0.167 C 
BRANCH  17  18
ATOM     18 O11  MOL A   1      11.537 -17.260  -7.088  1.00  0.00    -0.480 OA
BRANCH  18  19
ATOM     19 C12  MOL A   1      12.869 -17.176  -7.502  1.00  0.00     0.166 A 
ATOM     20 C13  MOL A   1      13.472 -18.219  -8.243  1.00  0.00     0.012 A 
ATOM     21 C21  MOL A   1      14.788 -18.057  -8.707  1.00  0.00    -0.054 A 
ATOM     22 C22  MOL A   1      15.511 -16.905  -8.401  1.00  0.00    -0.058 A 
ATOM     23 C23  MOL A   1      14.931 -15.899  -7.627  1.00  0.00    -0.016 A 
ATOM     24 C24  MOL A   1      13.607 -16.029  -7.168  1.00  0.00     0.161 A 
BRANCH  20  25
ATOM     25 C14  MOL A   1      12.738 -19.505  -8.550  1.00  0.00     0.028 C 
BRANCH  25  26
ATOM     26 N15  MOL A   1      12.603 -20.325  -7.328  1.00  0.00    -0.287 NA
ATOM     27 C16  MOL A   1      13.599 -21.409  -7.291  1.00  0.00     0.064 C 
ATOM     28 C17  MOL A   1      12.539 -22.487  -7.408  1.00  0.00     0.272 C 
ATOM     29 F18  MOL A   1      12.419 -23.274  -6.275  1.00  0.00    -0.204 F 
ATOM     30 F19  MOL A   1      12.605 -23.208  -8.588  1.00  0.00    -0.204 F 
ATOM     31 C20  MOL A   1      11.545 -21.343  -7.456  1.00  0.00     0.064 C 
ENDBRANCH  25  26
ENDBRANCH  20  25
BRANCH  24  32
ATOM     32 O25  MOL A   1      12.989 -15.042  -6.387  1.00  0.00    -0.493 OA
ATOM     33 C26  MOL A   1      13.645 -14.289  -5.372  1.00  0.00     0.078 C 
ENDBRANCH  24  32
ENDBRANCH  18  19
ENDBRANCH  17  18
ENDBRANCH  15  17
ENDBRANCH   8  14
ENDBRANCH   1   8
TORSDOF 10
ENDMDL
MODEL 409
REMARK VINA RESULT:    -7.005      6.135     10.794
REMARK INTER + INTRA:         -12.149
REMARK INTER:                 -11.124
REMARK INTRA:                  -1.025
REMARK UNBOUND:                -1.048
REMARK  10 active torsions:
REMARK  status: ('A' for Active; 'I' for Inactive)
REMARK   1   A    between atoms:  C27_1   and   C6_8  
REMARK   2   A    between atoms:  C6_8    and   C5_9  
REMARK   3   A    between atoms:  C5_9    and   C3_12 
REMARK   4   A    between atoms:  C6_8    and   N7_14 
REMARK   5   A    between atoms:  C8_15   and  C10_17 
REMARK   6   A    between atoms: C10_17   and  O11_18 
REMARK   7   A    between atoms: O11_18   and  C12_19 
REMARK   8   A    between atoms: C13_20   and  C14_25 
REMARK   9   A    between atoms: C14_25   and  N15_26 
REMARK   10  A    between atoms: C24_24   and  O25_32 
ROOT
ATOM      1 C27  MOL A   1       8.439 -17.531  -9.147  1.00  0.00    -0.024 A 
ATOM      2 C28  MOL A   1       7.699 -17.346  -7.965  1.00  0.00    -0.057 A 
ATOM      3 C29  MOL A   1       6.461 -16.694  -8.000  1.00  0.00    -0.061 A 
ATOM      4 C30  MOL A   1       5.951 -16.222  -9.212  1.00  0.00    -0.048 A 
ATOM      5 C31  MOL A   1       6.675 -16.403 -10.396  1.00  0.00     0.018 A 
ATOM      6 Br32 MOL A   1       5.966 -15.776 -12.058  1.00  0.00    -0.051 Br
ATOM      7 C33  MOL A   1       7.915 -17.049 -10.364  1.00  0.00    -0.043 A 
ENDROOT
BRANCH   1   8
ATOM      8  C6  MOL A   1       9.809 -18.171  -9.090  1.00  0.00     0.063 C 
BRANCH   8   9
ATOM      9  C5  MOL A   1       9.709 -19.576  -8.470  1.00  0.00     0.051 C 
BRANCH   9  12
ATOM     10  C1  MOL A   1       8.280 -22.802 -10.122  1.00  0.00     0.006 C 
ATOM     11  N2  MOL A   1       8.633 -21.785  -9.141  1.00  0.00    -0.359 N 
ATOM     12  C3  MOL A   1       9.368 -20.611  -9.503  1.00  0.00     0.222 C 
ATOM     13  O4  MOL A   1       9.734 -20.437 -10.698  1.00  0.00    -0.275 OA
ENDBRANCH   9  12
ENDBRANCH   8   9
BRANCH   8  14
ATOM     14  N7  MOL A   1      10.731 -17.331  -8.319  1.00  0.00    -0.346 N 
ATOM     15  C8  MOL A   1      12.148 -17.381  -8.496  1.00  0.00     0.258 C 
ATOM     16  O9  MOL A   1      12.656 -18.176  -9.331  1.00  0.00    -0.271 OA
BRANCH  15  17
ATOM     17 C10  MOL A   1      13.044 -16.481  -7.699  1.00  0.00     0.167 C 
BRANCH  17  18
ATOM     18 O11  MOL A   1      13.699 -17.215  -6.667  1.00  0.00    -0.480 OA
BRANCH  18  19
ATOM     19 C12  MOL A   1      14.893 -16.775  -6.088  1.00  0.00     0.166 A 
ATOM     20 C13  MOL A   1      16.144 -17.258  -6.536  1.00  0.00     0.012 A 
ATOM     21 C21  MOL A   1      17.321 -16.730  -5.980  1.00  0.00    -0.054 A 
ATOM     22 C22  MOL A   1      17.259 -15.777  -4.964  1.00  0.00    -0.058 A 
ATOM     23 C23  MOL A   1      16.023 -15.339  -4.489  1.00  0.00    -0.016 A 
ATOM     24 C24  MOL A   1      14.830 -15.838  -5.044  1.00  0.00     0.161 A 
BRANCH  20  25
ATOM     25 C14  MOL A   1      16.250 -18.330  -7.598  1.00  0.00     0.028 C 
BRANCH  25  26
ATOM     26 N15  MOL A   1      16.163 -17.731  -8.946  1.00  0.00    -0.287 NA
ATOM     27 C16  MOL A   1      16.784 -18.596  -9.964  1.00  0.00     0.064 C 
ATOM     28 C17  MOL A   1      17.888 -17.596 -10.246  1.00  0.00     0.272 C 
ATOM     29 F18  MOL A   1      17.827 -17.045 -11.514  1.00  0.00    -0.204 F 
ATOM     30 F19  MOL A   1      19.149 -18.042  -9.888  1.00  0.00    -0.204 F 
ATOM     31 C20  MOL A   1      17.227 -16.740  -9.183  1.00  0.00     0.064 C 
ENDBRANCH  25  26
ENDBRANCH  20  25
BRANCH  24  32
ATOM     32 O25  MOL A   1      13.568 -15.425  -4.594  1.00  0.00    -0.493 OA
ATOM     33 C26  MOL A   1      13.334 -14.738  -3.369  1.00  0.00     0.078 C 
ENDBRANCH  24  32
ENDBRANCH  18  19
ENDBRANCH  17  18
ENDBRANCH  15  17
ENDBRANCH   8  14
ENDBRANCH   1   8
TORSDOF 10
ENDMDL
MODEL 410
REMARK VINA RESULT:    -7.005      5.239      8.527
REMARK INTER + INTRA:         -12.148
REMARK INTER:                 -10.899
REMARK INTRA:                  -1.249
REMARK UNBOUND:                -1.048
REMARK  10 active torsions:
REMARK  status: ('A' for Active; 'I' for Inactive)
REMARK   1   A    between atoms:  C27_1   and   C6_8  
REMARK   2   A    between atoms:  C6_8    and   C5_9  
REMARK   3   A    between atoms:  C5_9    and   C3_12 
REMARK   4   A    between atoms:  C6_8    and   N7_14 
REMARK   5   A    between atoms:  C8_15   and  C10_17 
REMARK   6   A    between atoms: C10_17   and  O11_18 
REMARK   7   A    between atoms: O11_18   and  C12_19 
REMARK   8   A    between atoms: C13_20   and  C14_25 
REMARK   9   A    between atoms: C14_25   and  N15_26 
REMARK   10  A    between atoms: C24_24   and  O25_32 
ROOT
ATOM      1 C27  MOL A   1      15.288 -18.964  -8.450  1.00  0.00    -0.024 A 
ATOM      2 C28  MOL A   1      15.960 -18.144  -9.374  1.00  0.00    -0.057 A 
ATOM      3 C29  MOL A   1      17.048 -18.640 -10.100  1.00  0.00    -0.061 A 
ATOM      4 C30  MOL A   1      17.475 -19.957  -9.912  1.00  0.00    -0.048 A 
ATOM      5 C31  MOL A   1      16.813 -20.785  -8.998  1.00  0.00     0.018 A 
ATOM      6 Br32 MOL A   1      17.384 -22.595  -8.757  1.00  0.00    -0.051 Br
ATOM      7 C33  MOL A   1      15.728 -20.291  -8.266  1.00  0.00    -0.043 A 
ENDROOT
BRANCH   1   8
ATOM      8  C6  MOL A   1      14.159 -18.398  -7.616  1.00  0.00     0.063 C 
BRANCH   8   9
ATOM      9  C5  MOL A   1      14.619 -18.220  -6.157  1.00  0.00     0.051 C 
BRANCH   9  12
ATOM     10  C1  MOL A   1      13.739 -14.427  -6.052  1.00  0.00     0.006 C 
ATOM     11  N2  MOL A   1      13.776 -15.832  -6.430  1.00  0.00    -0.359 N 
ATOM     12  C3  MOL A   1      14.611 -16.775  -5.750  1.00  0.00     0.222 C 
ATOM     13  O4  MOL A   1      15.348 -16.396  -4.799  1.00  0.00    -0.275 OA
ENDBRANCH   9  12
ENDBRANCH   8   9
BRANCH   8  14
ATOM     14  N7  MOL A   1      12.987 -19.277  -7.684  1.00  0.00    -0.346 N 
ATOM     15  C8  MOL A   1      11.761 -18.878  -8.301  1.00  0.00     0.258 C 
ATOM     16  O9  MOL A   1      11.649 -17.729  -8.806  1.00  0.00    -0.271 OA
BRANCH  15  17
ATOM     17 C10  MOL A   1      10.601 -19.826  -8.366  1.00  0.00     0.167 C 
BRANCH  17  18
ATOM     18 O11  MOL A   1      10.140 -19.958  -9.708  1.00  0.00    -0.480 OA
BRANCH  18  19
ATOM     19 C12  MOL A   1       8.968 -20.651 -10.025  1.00  0.00     0.166 A 
ATOM     20 C13  MOL A   1       7.745 -19.969 -10.217  1.00  0.00     0.012 A 
ATOM     21 C21  MOL A   1       6.610 -20.697 -10.612  1.00  0.00    -0.054 A 
ATOM     22 C22  MOL A   1       6.674 -22.082 -10.765  1.00  0.00    -0.058 A 
ATOM     23 C23  MOL A   1       7.870 -22.759 -10.526  1.00  0.00    -0.016 A 
ATOM     24 C24  MOL A   1       9.026 -22.049 -10.149  1.00  0.00     0.161 A 
BRANCH  20  25
ATOM     25 C14  MOL A   1       7.624 -18.476 -10.008  1.00  0.00     0.028 C 
BRANCH  25  26
ATOM     26 N15  MOL A   1       7.387 -18.173  -8.582  1.00  0.00    -0.287 NA
ATOM     27 C16  MOL A   1       5.950 -18.168  -8.260  1.00  0.00     0.064 C 
ATOM     28 C17  MOL A   1       5.948 -16.682  -7.957  1.00  0.00     0.272 C 
ATOM     29 F18  MOL A   1       5.707 -16.387  -6.626  1.00  0.00    -0.204 F 
ATOM     30 F19  MOL A   1       5.193 -15.933  -8.844  1.00  0.00    -0.204 F 
ATOM     31 C20  MOL A   1       7.423 -16.726  -8.308  1.00  0.00     0.064 C 
ENDBRANCH  25  26
ENDBRANCH  20  25
BRANCH  24  32
ATOM     32 O25  MOL A   1      10.247 -22.692  -9.899  1.00  0.00    -0.493 OA
ATOM     33 C26  MOL A   1      10.401 -23.827  -9.053  1.00  0.00     0.078 C 
ENDBRANCH  24  32
ENDBRANCH  18  19
ENDBRANCH  17  18
ENDBRANCH  15  17
ENDBRANCH   8  14
ENDBRANCH   1   8
TORSDOF 10
ENDMDL
MODEL 411
REMARK VINA RESULT:    -7.004      4.084      8.477
REMARK INTER + INTRA:         -12.146
REMARK INTER:                 -12.134
REMARK INTRA:                  -0.012
REMARK UNBOUND:                -1.048
REMARK  10 active torsions:
REMARK  status: ('A' for Active; 'I' for Inactive)
REMARK   1   A    between atoms:  C27_1   and   C6_8  
REMARK   2   A    between atoms:  C6_8    and   C5_9  
REMARK   3   A    between atoms:  C5_9    and   C3_12 
REMARK   4   A    between atoms:  C6_8    and   N7_14 
REMARK   5   A    between atoms:  C8_15   and  C10_17 
REMARK   6   A    between atoms: C10_17   and  O11_18 
REMARK   7   A    between atoms: O11_18   and  C12_19 
REMARK   8   A    between atoms: C13_20   and  C14_25 
REMARK   9   A    between atoms: C14_25   and  N15_26 
REMARK   10  A    between atoms: C24_24   and  O25_32 
ROOT
ATOM      1 C27  MOL A   1       4.424 -15.027  -9.748  1.00  0.00    -0.024 A 
ATOM      2 C28  MOL A   1       4.095 -15.473  -8.454  1.00  0.00    -0.057 A 
ATOM      3 C29  MOL A   1       2.854 -15.157  -7.892  1.00  0.00    -0.061 A 
ATOM      4 C30  MOL A   1       1.930 -14.395  -8.612  1.00  0.00    -0.048 A 
ATOM      5 C31  MOL A   1       2.244 -13.948  -9.901  1.00  0.00     0.018 A 
ATOM      6 Br32 MOL A   1       0.970 -12.924 -10.895  1.00  0.00    -0.051 Br
ATOM      7 C33  MOL A   1       3.486 -14.257 -10.465  1.00  0.00    -0.043 A 
ENDROOT
BRANCH   1   8
ATOM      8  C6  MOL A   1       5.796 -15.311 -10.320  1.00  0.00     0.063 C 
BRANCH   8   9
ATOM      9  C5  MOL A   1       5.758 -15.207 -11.856  1.00  0.00     0.051 C 
BRANCH   9  12
ATOM     10  C1  MOL A   1       4.474 -12.155 -13.907  1.00  0.00     0.006 C 
ATOM     11  N2  MOL A   1       4.718 -13.515 -13.451  1.00  0.00    -0.359 N 
ATOM     12  C3  MOL A   1       5.533 -13.793 -12.307  1.00  0.00     0.222 C 
ATOM     13  O4  MOL A   1       6.067 -12.847 -11.666  1.00  0.00    -0.275 OA
ENDBRANCH   9  12
ENDBRANCH   8   9
BRANCH   8  14
ATOM     14  N7  MOL A   1       6.256 -16.640  -9.904  1.00  0.00    -0.346 N 
ATOM     15  C8  MOL A   1       7.469 -16.840  -9.175  1.00  0.00     0.258 C 
ATOM     16  O9  MOL A   1       8.198 -15.858  -8.872  1.00  0.00    -0.271 OA
BRANCH  15  17
ATOM     17 C10  MOL A   1       7.879 -18.218  -8.750  1.00  0.00     0.167 C 
BRANCH  17  18
ATOM     18 O11  MOL A   1       7.264 -19.200  -9.581  1.00  0.00    -0.480 OA
BRANCH  18  19
ATOM     19 C12  MOL A   1       7.818 -20.470  -9.763  1.00  0.00     0.166 A 
ATOM     20 C13  MOL A   1       7.294 -21.599  -9.093  1.00  0.00     0.012 A 
ATOM     21 C21  MOL A   1       7.831 -22.868  -9.366  1.00  0.00    -0.054 A 
ATOM     22 C22  MOL A   1       8.901 -23.009 -10.250  1.00  0.00    -0.058 A 
ATOM     23 C23  MOL A   1       9.450 -21.887 -10.871  1.00  0.00    -0.016 A 
ATOM     24 C24  MOL A   1       8.915 -20.608 -10.629  1.00  0.00     0.161 A 
BRANCH  20  25
ATOM     25 C14  MOL A   1       6.170 -21.479  -8.088  1.00  0.00     0.028 C 
BRANCH  25  26
ATOM     26 N15  MOL A   1       4.976 -20.880  -8.719  1.00  0.00    -0.287 NA
ATOM     27 C16  MOL A   1       4.050 -20.331  -7.714  1.00  0.00     0.064 C 
ATOM     28 C17  MOL A   1       2.974 -21.347  -8.044  1.00  0.00     0.272 C 
ATOM     29 F18  MOL A   1       1.843 -20.793  -8.616  1.00  0.00    -0.204 F 
ATOM     30 F19  MOL A   1       2.705 -22.230  -7.010  1.00  0.00    -0.204 F 
ATOM     31 C20  MOL A   1       3.961 -21.892  -9.058  1.00  0.00     0.064 C 
ENDBRANCH  25  26
ENDBRANCH  20  25
BRANCH  24  32
ATOM     32 O25  MOL A   1       9.438 -19.455 -11.232  1.00  0.00    -0.493 OA
ATOM     33 C26  MOL A   1      10.693 -18.871 -10.900  1.00  0.00     0.078 C 
ENDBRANCH  24  32
ENDBRANCH  18  19
ENDBRANCH  17  18
ENDBRANCH  15  17
ENDBRANCH   8  14
ENDBRANCH   1   8
TORSDOF 10
ENDMDL
MODEL 412
REMARK VINA RESULT:    -7.003      6.429      8.765
REMARK INTER + INTRA:         -12.145
REMARK INTER:                 -10.964
REMARK INTRA:                  -1.181
REMARK UNBOUND:                -1.048
REMARK  10 active torsions:
REMARK  status: ('A' for Active; 'I' for Inactive)
REMARK   1   A    between atoms:  C27_1   and   C6_8  
REMARK   2   A    between atoms:  C6_8    and   C5_9  
REMARK   3   A    between atoms:  C5_9    and   C3_12 
REMARK   4   A    between atoms:  C6_8    and   N7_14 
REMARK   5   A    between atoms:  C8_15   and  C10_17 
REMARK   6   A    between atoms: C10_17   and  O11_18 
REMARK   7   A    between atoms: O11_18   and  C12_19 
REMARK   8   A    between atoms: C13_20   and  C14_25 
REMARK   9   A    between atoms: C14_25   and  N15_26 
REMARK   10  A    between atoms: C24_24   and  O25_32 
ROOT
ATOM      1 C27  MOL A   1      13.124 -19.986  -7.345  1.00  0.00    -0.024 A 
ATOM      2 C28  MOL A   1      13.117 -20.522  -6.044  1.00  0.00    -0.057 A 
ATOM      3 C29  MOL A   1      14.121 -21.406  -5.638  1.00  0.00    -0.061 A 
ATOM      4 C30  MOL A   1      15.141 -21.765  -6.523  1.00  0.00    -0.048 A 
ATOM      5 C31  MOL A   1      15.162 -21.237  -7.819  1.00  0.00     0.018 A 
ATOM      6 Br32 MOL A   1      16.570 -21.711  -9.024  1.00  0.00    -0.051 Br
ATOM      7 C33  MOL A   1      14.156 -20.356  -8.231  1.00  0.00    -0.043 A 
ENDROOT
BRANCH   1   8
ATOM      8  C6  MOL A   1      11.994 -19.088  -7.801  1.00  0.00     0.063 C 
BRANCH   8   9
ATOM      9  C5  MOL A   1      12.131 -17.699  -7.151  1.00  0.00     0.051 C 
BRANCH   9  12
ATOM     10  C1  MOL A   1      15.710 -16.239  -6.668  1.00  0.00     0.006 C 
ATOM     11  N2  MOL A   1      14.406 -16.830  -6.405  1.00  0.00    -0.359 N 
ATOM     12  C3  MOL A   1      13.464 -17.078  -7.454  1.00  0.00     0.222 C 
ATOM     13  O4  MOL A   1      13.751 -16.778  -8.645  1.00  0.00    -0.275 OA
ENDBRANCH   9  12
ENDBRANCH   8   9
BRANCH   8  14
ATOM     14  N7  MOL A   1      10.699 -19.689  -7.465  1.00  0.00    -0.346 N 
ATOM     15  C8  MOL A   1       9.499 -19.376  -8.174  1.00  0.00     0.258 C 
ATOM     16  O9  MOL A   1       9.519 -18.547  -9.123  1.00  0.00    -0.271 OA
BRANCH  15  17
ATOM     17 C10  MOL A   1       8.206 -20.040  -7.807  1.00  0.00     0.167 C 
BRANCH  17  18
ATOM     18 O11  MOL A   1       7.139 -19.528  -8.601  1.00  0.00    -0.480 OA
BRANCH  18  19
ATOM     19 C12  MOL A   1       6.033 -20.309  -8.950  1.00  0.00     0.166 A 
ATOM     20 C13  MOL A   1       6.085 -21.203 -10.044  1.00  0.00     0.012 A 
ATOM     21 C21  MOL A   1       4.977 -22.025 -10.309  1.00  0.00    -0.054 A 
ATOM     22 C22  MOL A   1       3.822 -21.929  -9.534  1.00  0.00    -0.058 A 
ATOM     23 C23  MOL A   1       3.755 -21.011  -8.486  1.00  0.00    -0.016 A 
ATOM     24 C24  MOL A   1       4.859 -20.190  -8.189  1.00  0.00     0.161 A 
BRANCH  20  25
ATOM     25 C14  MOL A   1       7.300 -21.297 -10.939  1.00  0.00     0.028 C 
BRANCH  25  26
ATOM     26 N15  MOL A   1       7.846 -22.670 -10.926  1.00  0.00    -0.287 NA
ATOM     27 C16  MOL A   1       8.194 -23.101  -9.562  1.00  0.00     0.064 C 
ATOM     28 C17  MOL A   1       9.675 -23.160  -9.880  1.00  0.00     0.272 C 
ATOM     29 F18  MOL A   1      10.199 -24.440  -9.849  1.00  0.00    -0.204 F 
ATOM     30 F19  MOL A   1      10.431 -22.227  -9.188  1.00  0.00    -0.204 F 
ATOM     31 C20  MOL A   1       9.278 -22.702 -11.269  1.00  0.00     0.064 C 
ENDBRANCH  25  26
ENDBRANCH  20  25
BRANCH  24  32
ATOM     32 O25  MOL A   1       4.832 -19.254  -7.145  1.00  0.00    -0.493 OA
ATOM     33 C26  MOL A   1       4.831 -17.842  -7.329  1.00  0.00     0.078 C 
ENDBRANCH  24  32
ENDBRANCH  18  19
ENDBRANCH  17  18
ENDBRANCH  15  17
ENDBRANCH   8  14
ENDBRANCH   1   8
TORSDOF 10
ENDMDL
MODEL 413
REMARK VINA RESULT:    -7.002      5.526      8.736
REMARK INTER + INTRA:         -12.143
REMARK INTER:                 -11.733
REMARK INTRA:                  -0.410
REMARK UNBOUND:                -1.048
REMARK  10 active torsions:
REMARK  status: ('A' for Active; 'I' for Inactive)
REMARK   1   A    between atoms:  C27_1   and   C6_8  
REMARK   2   A    between atoms:  C6_8    and   C5_9  
REMARK   3   A    between atoms:  C5_9    and   C3_12 
REMARK   4   A    between atoms:  C6_8    and   N7_14 
REMARK   5   A    between atoms:  C8_15   and  C10_17 
REMARK   6   A    between atoms: C10_17   and  O11_18 
REMARK   7   A    between atoms: O11_18   and  C12_19 
REMARK   8   A    between atoms: C13_20   and  C14_25 
REMARK   9   A    between atoms: C14_25   and  N15_26 
REMARK   10  A    between atoms: C24_24   and  O25_32 
ROOT
ATOM      1 C27  MOL A   1       0.215 -21.812  -8.602  1.00  0.00    -0.024 A 
ATOM      2 C28  MOL A   1       0.136 -22.887  -7.698  1.00  0.00    -0.057 A 
ATOM      3 C29  MOL A   1      -0.867 -22.919  -6.723  1.00  0.00    -0.061 A 
ATOM      4 C30  MOL A   1      -1.799 -21.881  -6.640  1.00  0.00    -0.048 A 
ATOM      5 C31  MOL A   1      -1.734 -20.808  -7.535  1.00  0.00     0.018 A 
ATOM      6 Br32 MOL A   1      -3.023 -19.398  -7.435  1.00  0.00    -0.051 Br
ATOM      7 C33  MOL A   1      -0.729 -20.769  -8.508  1.00  0.00    -0.043 A 
ENDROOT
BRANCH   1   8
ATOM      8  C6  MOL A   1       1.345 -21.748  -9.606  1.00  0.00     0.063 C 
BRANCH   8   9
ATOM      9  C5  MOL A   1       1.394 -23.048 -10.429  1.00  0.00     0.051 C 
BRANCH   9  12
ATOM     10  C1  MOL A   1      -1.637 -22.360 -12.777  1.00  0.00     0.006 C 
ATOM     11  N2  MOL A   1      -0.418 -22.190 -12.000  1.00  0.00    -0.359 N 
ATOM     12  C3  MOL A   1       0.129 -23.252 -11.211  1.00  0.00     0.222 C 
ATOM     13  O4  MOL A   1      -0.450 -24.372 -11.171  1.00  0.00    -0.275 OA
ENDBRANCH   9  12
ENDBRANCH   8   9
BRANCH   8  14
ATOM     14  N7  MOL A   1       2.622 -21.523  -8.920  1.00  0.00    -0.346 N 
ATOM     15  C8  MOL A   1       3.884 -21.794  -9.535  1.00  0.00     0.258 C 
ATOM     16  O9  MOL A   1       3.934 -22.254 -10.706  1.00  0.00    -0.271 OA
BRANCH  15  17
ATOM     17 C10  MOL A   1       5.161 -21.521  -8.798  1.00  0.00     0.167 C 
BRANCH  17  18
ATOM     18 O11  MOL A   1       6.170 -21.071  -9.698  1.00  0.00    -0.480 OA
BRANCH  18  19
ATOM     19 C12  MOL A   1       7.396 -20.573  -9.248  1.00  0.00     0.166 A 
ATOM     20 C13  MOL A   1       7.521 -19.241  -8.791  1.00  0.00     0.012 A 
ATOM     21 C21  MOL A   1       8.753 -18.807  -8.275  1.00  0.00    -0.054 A 
ATOM     22 C22  MOL A   1       9.854 -19.663  -8.256  1.00  0.00    -0.058 A 
ATOM     23 C23  MOL A   1       9.742 -20.961  -8.754  1.00  0.00    -0.016 A 
ATOM     24 C24  MOL A   1       8.513 -21.425  -9.258  1.00  0.00     0.161 A 
BRANCH  20  25
ATOM     25 C14  MOL A   1       6.364 -18.268  -8.845  1.00  0.00     0.028 C 
BRANCH  25  26
ATOM     26 N15  MOL A   1       6.111 -17.693  -7.508  1.00  0.00    -0.287 NA
ATOM     27 C16  MOL A   1       4.670 -17.530  -7.252  1.00  0.00     0.064 C 
ATOM     28 C17  MOL A   1       4.772 -16.018  -7.223  1.00  0.00     0.272 C 
ATOM     29 F18  MOL A   1       4.516 -15.468  -5.979  1.00  0.00    -0.204 F 
ATOM     30 F19  MOL A   1       4.100 -15.393  -8.261  1.00  0.00    -0.204 F 
ATOM     31 C20  MOL A   1       6.248 -16.227  -7.499  1.00  0.00     0.064 C 
ENDBRANCH  25  26
ENDBRANCH  20  25
BRANCH  24  32
ATOM     32 O25  MOL A   1       8.358 -22.722  -9.769  1.00  0.00    -0.493 OA
ATOM     33 C26  MOL A   1       9.371 -23.439 -10.466  1.00  0.00     0.078 C 
ENDBRANCH  24  32
ENDBRANCH  18  19
ENDBRANCH  17  18
ENDBRANCH  15  17
ENDBRANCH   8  14
ENDBRANCH   1   8
TORSDOF 10
ENDMDL
MODEL 414
REMARK VINA RESULT:    -7.002      6.951     11.728
REMARK INTER + INTRA:         -12.143
REMARK INTER:                 -10.841
REMARK INTRA:                  -1.302
REMARK UNBOUND:                -1.048
REMARK  10 active torsions:
REMARK  status: ('A' for Active; 'I' for Inactive)
REMARK   1   A    between atoms:  C27_1   and   C6_8  
REMARK   2   A    between atoms:  C6_8    and   C5_9  
REMARK   3   A    between atoms:  C5_9    and   C3_12 
REMARK   4   A    between atoms:  C6_8    and   N7_14 
REMARK   5   A    between atoms:  C8_15   and  C10_17 
REMARK   6   A    between atoms: C10_17   and  O11_18 
REMARK   7   A    between atoms: O11_18   and  C12_19 
REMARK   8   A    between atoms: C13_20   and  C14_25 
REMARK   9   A    between atoms: C14_25   and  N15_26 
REMARK   10  A    between atoms: C24_24   and  O25_32 
ROOT
ATOM      1 C27  MOL A   1      12.744 -19.651  -7.531  1.00  0.00    -0.024 A 
ATOM      2 C28  MOL A   1      12.025 -20.565  -6.739  1.00  0.00    -0.057 A 
ATOM      3 C29  MOL A   1      12.519 -21.856  -6.523  1.00  0.00    -0.061 A 
ATOM      4 C30  MOL A   1      13.733 -22.247  -7.096  1.00  0.00    -0.048 A 
ATOM      5 C31  MOL A   1      14.459 -21.347  -7.883  1.00  0.00     0.018 A 
ATOM      6 Br32 MOL A   1      16.131 -21.877  -8.649  1.00  0.00    -0.051 Br
ATOM      7 C33  MOL A   1      13.966 -20.057  -8.106  1.00  0.00    -0.043 A 
ENDROOT
BRANCH   1   8
ATOM      8  C6  MOL A   1      12.168 -18.282  -7.819  1.00  0.00     0.063 C 
BRANCH   8   9
ATOM      9  C5  MOL A   1      11.233 -18.349  -9.040  1.00  0.00     0.051 C 
BRANCH   9  12
ATOM     10  C1  MOL A   1       7.804 -16.656  -8.299  1.00  0.00     0.006 C 
ATOM     11  N2  MOL A   1       9.197 -16.865  -8.667  1.00  0.00    -0.359 N 
ATOM     12  C3  MOL A   1       9.796 -18.165  -8.645  1.00  0.00     0.222 C 
ATOM     13  O4  MOL A   1       9.117 -19.169  -8.294  1.00  0.00    -0.275 OA
ENDBRANCH   9  12
ENDBRANCH   8   9
BRANCH   8  14
ATOM     14  N7  MOL A   1      13.246 -17.314  -8.048  1.00  0.00    -0.346 N 
ATOM     15  C8  MOL A   1      13.392 -16.126  -7.267  1.00  0.00     0.258 C 
ATOM     16  O9  MOL A   1      12.573 -15.867  -6.346  1.00  0.00    -0.271 OA
BRANCH  15  17
ATOM     17 C10  MOL A   1      14.529 -15.184  -7.525  1.00  0.00     0.167 C 
BRANCH  17  18
ATOM     18 O11  MOL A   1      15.285 -14.974  -6.334  1.00  0.00    -0.480 OA
BRANCH  18  19
ATOM     19 C12  MOL A   1      16.080 -15.978  -5.775  1.00  0.00     0.166 A 
ATOM     20 C13  MOL A   1      15.842 -16.455  -4.466  1.00  0.00     0.012 A 
ATOM     21 C21  MOL A   1      16.616 -17.519  -3.973  1.00  0.00    -0.054 A 
ATOM     22 C22  MOL A   1      17.639 -18.068  -4.746  1.00  0.00    -0.058 A 
ATOM     23 C23  MOL A   1      17.905 -17.562  -6.019  1.00  0.00    -0.016 A 
ATOM     24 C24  MOL A   1      17.130 -16.510  -6.542  1.00  0.00     0.161 A 
BRANCH  20  25
ATOM     25 C14  MOL A   1      14.777 -15.850  -3.579  1.00  0.00     0.028 C 
BRANCH  25  26
ATOM     26 N15  MOL A   1      15.245 -14.567  -3.013  1.00  0.00    -0.287 NA
ATOM     27 C16  MOL A   1      15.898 -14.757  -1.707  1.00  0.00     0.064 C 
ATOM     28 C17  MOL A   1      14.812 -13.997  -0.971  1.00  0.00     0.272 C 
ATOM     29 F18  MOL A   1      15.246 -12.803  -0.420  1.00  0.00    -0.204 F 
ATOM     30 F19  MOL A   1      14.073 -14.781  -0.101  1.00  0.00    -0.204 F 
ATOM     31 C20  MOL A   1      14.164 -13.833  -2.332  1.00  0.00     0.064 C 
ENDBRANCH  25  26
ENDBRANCH  20  25
BRANCH  24  32
ATOM     32 O25  MOL A   1      17.366 -15.972  -7.815  1.00  0.00    -0.493 OA
ATOM     33 C26  MOL A   1      17.243 -16.700  -9.032  1.00  0.00     0.078 C 
ENDBRANCH  24  32
ENDBRANCH  18  19
ENDBRANCH  17  18
ENDBRANCH  15  17
ENDBRANCH   8  14
ENDBRANCH   1   8
TORSDOF 10
ENDMDL
MODEL 415
REMARK VINA RESULT:    -6.999      8.243     11.927
REMARK INTER + INTRA:         -12.140
REMARK INTER:                 -10.906
REMARK INTRA:                  -1.233
REMARK UNBOUND:                -1.048
REMARK  10 active torsions:
REMARK  status: ('A' for Active; 'I' for Inactive)
REMARK   1   A    between atoms:  C27_1   and   C6_8  
REMARK   2   A    between atoms:  C6_8    and   C5_9  
REMARK   3   A    between atoms:  C5_9    and   C3_12 
REMARK   4   A    between atoms:  C6_8    and   N7_14 
REMARK   5   A    between atoms:  C8_15   and  C10_17 
REMARK   6   A    between atoms: C10_17   and  O11_18 
REMARK   7   A    between atoms: O11_18   and  C12_19 
REMARK   8   A    between atoms: C13_20   and  C14_25 
REMARK   9   A    between atoms: C14_25   and  N15_26 
REMARK   10  A    between atoms: C24_24   and  O25_32 
ROOT
ATOM      1 C27  MOL A   1      15.411 -18.853  -1.669  1.00  0.00    -0.024 A 
ATOM      2 C28  MOL A   1      15.338 -20.246  -1.484  1.00  0.00    -0.057 A 
ATOM      3 C29  MOL A   1      14.686 -20.779  -0.367  1.00  0.00    -0.061 A 
ATOM      4 C30  MOL A   1      14.101 -19.928   0.575  1.00  0.00    -0.048 A 
ATOM      5 C31  MOL A   1      14.163 -18.541   0.401  1.00  0.00     0.018 A 
ATOM      6 Br32 MOL A   1      13.342 -17.378   1.680  1.00  0.00    -0.051 Br
ATOM      7 C33  MOL A   1      14.819 -18.005  -0.711  1.00  0.00    -0.043 A 
ENDROOT
BRANCH   1   8
ATOM      8  C6  MOL A   1      16.181 -18.284  -2.841  1.00  0.00     0.063 C 
BRANCH   8   9
ATOM      9  C5  MOL A   1      16.599 -16.833  -2.542  1.00  0.00     0.051 C 
BRANCH   9  12
ATOM     10  C1  MOL A   1      13.906 -14.540  -4.173  1.00  0.00     0.006 C 
ATOM     11  N2  MOL A   1      14.571 -15.484  -3.287  1.00  0.00    -0.359 N 
ATOM     12  C3  MOL A   1      15.938 -15.865  -3.480  1.00  0.00     0.222 C 
ATOM     13  O4  MOL A   1      16.598 -15.385  -4.441  1.00  0.00    -0.275 OA
ENDBRANCH   9  12
ENDBRANCH   8   9
BRANCH   8  14
ATOM     14  N7  MOL A   1      15.368 -18.346  -4.061  1.00  0.00    -0.346 N 
ATOM     15  C8  MOL A   1      15.510 -19.390  -5.027  1.00  0.00     0.258 C 
ATOM     16  O9  MOL A   1      16.364 -20.301  -4.857  1.00  0.00    -0.271 OA
BRANCH  15  17
ATOM     17 C10  MOL A   1      14.636 -19.420  -6.244  1.00  0.00     0.167 C 
BRANCH  17  18
ATOM     18 O11  MOL A   1      15.313 -18.844  -7.359  1.00  0.00    -0.480 OA
BRANCH  18  19
ATOM     19 C12  MOL A   1      15.344 -17.464  -7.576  1.00  0.00     0.166 A 
ATOM     20 C13  MOL A   1      14.151 -16.710  -7.663  1.00  0.00     0.012 A 
ATOM     21 C21  MOL A   1      14.231 -15.315  -7.802  1.00  0.00    -0.054 A 
ATOM     22 C22  MOL A   1      15.471 -14.683  -7.902  1.00  0.00    -0.058 A 
ATOM     23 C23  MOL A   1      16.646 -15.434  -7.866  1.00  0.00    -0.016 A 
ATOM     24 C24  MOL A   1      16.591 -16.832  -7.708  1.00  0.00     0.161 A 
BRANCH  20  25
ATOM     25 C14  MOL A   1      12.789 -17.366  -7.611  1.00  0.00     0.028 C 
BRANCH  25  26
ATOM     26 N15  MOL A   1      12.149 -17.329  -8.942  1.00  0.00    -0.287 NA
ATOM     27 C16  MOL A   1      10.733 -17.730  -8.873  1.00  0.00     0.064 C 
ATOM     28 C17  MOL A   1      10.974 -18.986  -9.688  1.00  0.00     0.272 C 
ATOM     29 F18  MOL A   1      10.360 -18.969 -10.928  1.00  0.00    -0.204 F 
ATOM     30 F19  MOL A   1      10.772 -20.158  -8.978  1.00  0.00    -0.204 F 
ATOM     31 C20  MOL A   1      12.424 -18.546  -9.725  1.00  0.00     0.064 C 
ENDBRANCH  25  26
ENDBRANCH  20  25
BRANCH  24  32
ATOM     32 O25  MOL A   1      17.748 -17.623  -7.668  1.00  0.00    -0.493 OA
ATOM     33 C26  MOL A   1      18.444 -17.975  -6.477  1.00  0.00     0.078 C 
ENDBRANCH  24  32
ENDBRANCH  18  19
ENDBRANCH  17  18
ENDBRANCH  15  17
ENDBRANCH   8  14
ENDBRANCH   1   8
TORSDOF 10
ENDMDL
MODEL 416
REMARK VINA RESULT:    -6.997      7.017     10.918
REMARK INTER + INTRA:         -12.136
REMARK INTER:                 -10.381
REMARK INTRA:                  -1.755
REMARK UNBOUND:                -1.048
REMARK  10 active torsions:
REMARK  status: ('A' for Active; 'I' for Inactive)
REMARK   1   A    between atoms:  C27_1   and   C6_8  
REMARK   2   A    between atoms:  C6_8    and   C5_9  
REMARK   3   A    between atoms:  C5_9    and   C3_12 
REMARK   4   A    between atoms:  C6_8    and   N7_14 
REMARK   5   A    between atoms:  C8_15   and  C10_17 
REMARK   6   A    between atoms: C10_17   and  O11_18 
REMARK   7   A    between atoms: O11_18   and  C12_19 
REMARK   8   A    between atoms: C13_20   and  C14_25 
REMARK   9   A    between atoms: C14_25   and  N15_26 
REMARK   10  A    between atoms: C24_24   and  O25_32 
ROOT
ATOM      1 C27  MOL A   1      16.789 -17.817  -5.006  1.00  0.00    -0.024 A 
ATOM      2 C28  MOL A   1      15.706 -17.161  -4.392  1.00  0.00    -0.057 A 
ATOM      3 C29  MOL A   1      15.884 -15.908  -3.796  1.00  0.00    -0.061 A 
ATOM      4 C30  MOL A   1      17.141 -15.298  -3.805  1.00  0.00    -0.048 A 
ATOM      5 C31  MOL A   1      18.226 -15.938  -4.415  1.00  0.00     0.018 A 
ATOM      6 Br32 MOL A   1      19.942 -15.093  -4.447  1.00  0.00    -0.051 Br
ATOM      7 C33  MOL A   1      18.054 -17.193  -5.008  1.00  0.00    -0.043 A 
ENDROOT
BRANCH   1   8
ATOM      8  C6  MOL A   1      16.606 -19.203  -5.584  1.00  0.00     0.063 C 
BRANCH   8   9
ATOM      9  C5  MOL A   1      17.949 -19.955  -5.586  1.00  0.00     0.051 C 
BRANCH   9  12
ATOM     10  C1  MOL A   1      19.558 -19.942  -9.133  1.00  0.00     0.006 C 
ATOM     11  N2  MOL A   1      19.157 -19.547  -7.791  1.00  0.00    -0.359 N 
ATOM     12  C3  MOL A   1      18.337 -20.386  -6.971  1.00  0.00     0.222 C 
ATOM     13  O4  MOL A   1      17.935 -21.499  -7.408  1.00  0.00    -0.275 OA
ENDBRANCH   9  12
ENDBRANCH   8   9
BRANCH   8  14
ATOM     14  N7  MOL A   1      16.060 -19.118  -6.943  1.00  0.00    -0.346 N 
ATOM     15  C8  MOL A   1      14.709 -19.468  -7.252  1.00  0.00     0.258 C 
ATOM     16  O9  MOL A   1      13.936 -19.878  -6.346  1.00  0.00    -0.271 OA
BRANCH  15  17
ATOM     17 C10  MOL A   1      14.194 -19.338  -8.654  1.00  0.00     0.167 C 
BRANCH  17  18
ATOM     18 O11  MOL A   1      13.937 -17.971  -8.966  1.00  0.00    -0.480 OA
BRANCH  18  19
ATOM     19 C12  MOL A   1      13.294 -17.114  -8.070  1.00  0.00     0.166 A 
ATOM     20 C13  MOL A   1      11.918 -17.261  -7.777  1.00  0.00     0.012 A 
ATOM     21 C21  MOL A   1      11.331 -16.427  -6.811  1.00  0.00    -0.054 A 
ATOM     22 C22  MOL A   1      12.081 -15.434  -6.182  1.00  0.00    -0.058 A 
ATOM     23 C23  MOL A   1      13.426 -15.259  -6.509  1.00  0.00    -0.016 A 
ATOM     24 C24  MOL A   1      14.042 -16.094  -7.459  1.00  0.00     0.161 A 
BRANCH  20  25
ATOM     25 C14  MOL A   1      11.060 -18.290  -8.478  1.00  0.00     0.028 C 
BRANCH  25  26
ATOM     26 N15  MOL A   1       9.629 -18.025  -8.229  1.00  0.00    -0.287 NA
ATOM     27 C16  MOL A   1       8.829 -19.260  -8.298  1.00  0.00     0.064 C 
ATOM     28 C17  MOL A   1       8.082 -18.794  -9.532  1.00  0.00     0.272 C 
ATOM     29 F18  MOL A   1       6.735 -18.563  -9.313  1.00  0.00    -0.204 F 
ATOM     30 F19  MOL A   1       8.345 -19.552 -10.662  1.00  0.00    -0.204 F 
ATOM     31 C20  MOL A   1       8.934 -17.544  -9.435  1.00  0.00     0.064 C 
ENDBRANCH  25  26
ENDBRANCH  20  25
BRANCH  24  32
ATOM     32 O25  MOL A   1      15.390 -15.950  -7.816  1.00  0.00    -0.493 OA
ATOM     33 C26  MOL A   1      16.185 -14.808  -7.516  1.00  0.00     0.078 C 
ENDBRANCH  24  32
ENDBRANCH  18  19
ENDBRANCH  17  18
ENDBRANCH  15  17
ENDBRANCH   8  14
ENDBRANCH   1   8
TORSDOF 10
ENDMDL
MODEL 417
REMARK VINA RESULT:    -6.997      5.436     10.620
REMARK INTER + INTRA:         -12.136
REMARK INTER:                 -11.293
REMARK INTRA:                  -0.843
REMARK UNBOUND:                -1.048
REMARK  10 active torsions:
REMARK  status: ('A' for Active; 'I' for Inactive)
REMARK   1   A    between atoms:  C27_1   and   C6_8  
REMARK   2   A    between atoms:  C6_8    and   C5_9  
REMARK   3   A    between atoms:  C5_9    and   C3_12 
REMARK   4   A    between atoms:  C6_8    and   N7_14 
REMARK   5   A    between atoms:  C8_15   and  C10_17 
REMARK   6   A    between atoms: C10_17   and  O11_18 
REMARK   7   A    between atoms: O11_18   and  C12_19 
REMARK   8   A    between atoms: C13_20   and  C14_25 
REMARK   9   A    between atoms: C14_25   and  N15_26 
REMARK   10  A    between atoms: C24_24   and  O25_32 
ROOT
ATOM      1 C27  MOL A   1       9.200 -20.416  -8.952  1.00  0.00    -0.024 A 
ATOM      2 C28  MOL A   1       9.676 -21.532  -9.664  1.00  0.00    -0.057 A 
ATOM      3 C29  MOL A   1       8.855 -22.647  -9.863  1.00  0.00    -0.061 A 
ATOM      4 C30  MOL A   1       7.553 -22.659  -9.354  1.00  0.00    -0.048 A 
ATOM      5 C31  MOL A   1       7.067 -21.555  -8.647  1.00  0.00     0.018 A 
ATOM      6 Br32 MOL A   1       5.277 -21.563  -7.969  1.00  0.00    -0.051 Br
ATOM      7 C33  MOL A   1       7.886 -20.440  -8.441  1.00  0.00    -0.043 A 
ENDROOT
BRANCH   1   8
ATOM      8  C6  MOL A   1      10.118 -19.245  -8.678  1.00  0.00     0.063 C 
BRANCH   8   9
ATOM      9  C5  MOL A   1      10.313 -18.416  -9.961  1.00  0.00     0.051 C 
BRANCH   9  12
ATOM     10  C1  MOL A   1       6.977 -16.425 -10.244  1.00  0.00     0.006 C 
ATOM     11  N2  MOL A   1       8.245 -16.945  -9.752  1.00  0.00    -0.359 N 
ATOM     12  C3  MOL A   1       9.004 -17.907 -10.491  1.00  0.00     0.222 C 
ATOM     13  O4  MOL A   1       8.578 -18.333 -11.599  1.00  0.00    -0.275 OA
ENDBRANCH   9  12
ENDBRANCH   8   9
BRANCH   8  14
ATOM     14  N7  MOL A   1      11.410 -19.719  -8.169  1.00  0.00    -0.346 N 
ATOM     15  C8  MOL A   1      12.330 -18.863  -7.489  1.00  0.00     0.258 C 
ATOM     16  O9  MOL A   1      12.055 -17.646  -7.314  1.00  0.00    -0.271 OA
BRANCH  15  17
ATOM     17 C10  MOL A   1      13.626 -19.406  -6.966  1.00  0.00     0.167 C 
BRANCH  17  18
ATOM     18 O11  MOL A   1      14.723 -18.642  -7.460  1.00  0.00    -0.480 OA
BRANCH  18  19
ATOM     19 C12  MOL A   1      15.925 -18.529  -6.757  1.00  0.00     0.166 A 
ATOM     20 C13  MOL A   1      16.312 -17.307  -6.160  1.00  0.00     0.012 A 
ATOM     21 C21  MOL A   1      17.489 -17.260  -5.395  1.00  0.00    -0.054 A 
ATOM     22 C22  MOL A   1      18.294 -18.391  -5.264  1.00  0.00    -0.058 A 
ATOM     23 C23  MOL A   1      17.937 -19.583  -5.896  1.00  0.00    -0.016 A 
ATOM     24 C24  MOL A   1      16.752 -19.660  -6.651  1.00  0.00     0.161 A 
BRANCH  20  25
ATOM     25 C14  MOL A   1      15.492 -16.046  -6.323  1.00  0.00     0.028 C 
BRANCH  25  26
ATOM     26 N15  MOL A   1      14.263 -16.121  -5.507  1.00  0.00    -0.287 NA
ATOM     27 C16  MOL A   1      13.532 -14.842  -5.510  1.00  0.00     0.064 C 
ATOM     28 C17  MOL A   1      13.781 -14.613  -4.032  1.00  0.00     0.272 C 
ATOM     29 F18  MOL A   1      12.632 -14.660  -3.261  1.00  0.00    -0.204 F 
ATOM     30 F19  MOL A   1      14.591 -13.521  -3.765  1.00  0.00    -0.204 F 
ATOM     31 C20  MOL A   1      14.536 -15.927  -4.073  1.00  0.00     0.064 C 
ENDBRANCH  25  26
ENDBRANCH  20  25
BRANCH  24  32
ATOM     32 O25  MOL A   1      16.358 -20.838  -7.302  1.00  0.00    -0.493 OA
ATOM     33 C26  MOL A   1      16.951 -22.114  -7.087  1.00  0.00     0.078 C 
ENDBRANCH  24  32
ENDBRANCH  18  19
ENDBRANCH  17  18
ENDBRANCH  15  17
ENDBRANCH   8  14
ENDBRANCH   1   8
TORSDOF 10
ENDMDL
MODEL 418
REMARK VINA RESULT:    -6.991      9.988     12.388
REMARK INTER + INTRA:         -12.127
REMARK INTER:                 -10.650
REMARK INTRA:                  -1.476
REMARK UNBOUND:                -1.048
REMARK  10 active torsions:
REMARK  status: ('A' for Active; 'I' for Inactive)
REMARK   1   A    between atoms:  C27_1   and   C6_8  
REMARK   2   A    between atoms:  C6_8    and   C5_9  
REMARK   3   A    between atoms:  C5_9    and   C3_12 
REMARK   4   A    between atoms:  C6_8    and   N7_14 
REMARK   5   A    between atoms:  C8_15   and  C10_17 
REMARK   6   A    between atoms: C10_17   and  O11_18 
REMARK   7   A    between atoms: O11_18   and  C12_19 
REMARK   8   A    between atoms: C13_20   and  C14_25 
REMARK   9   A    between atoms: C14_25   and  N15_26 
REMARK   10  A    between atoms: C24_24   and  O25_32 
ROOT
ATOM      1 C27  MOL A   1      15.576 -19.110  -2.571  1.00  0.00    -0.024 A 
ATOM      2 C28  MOL A   1      15.419 -20.329  -1.887  1.00  0.00    -0.057 A 
ATOM      3 C29  MOL A   1      14.910 -20.348  -0.584  1.00  0.00    -0.061 A 
ATOM      4 C30  MOL A   1      14.553 -19.154   0.047  1.00  0.00    -0.048 A 
ATOM      5 C31  MOL A   1      14.701 -17.935  -0.624  1.00  0.00     0.018 A 
ATOM      6 Br32 MOL A   1      14.192 -16.302   0.233  1.00  0.00    -0.051 Br
ATOM      7 C33  MOL A   1      15.215 -17.911  -1.924  1.00  0.00    -0.043 A 
ENDROOT
BRANCH   1   8
ATOM      8  C6  MOL A   1      16.196 -19.092  -3.952  1.00  0.00     0.063 C 
BRANCH   8   9
ATOM      9  C5  MOL A   1      17.331 -18.054  -4.007  1.00  0.00     0.051 C 
BRANCH   9  12
ATOM     10  C1  MOL A   1      19.292 -19.978  -6.768  1.00  0.00     0.006 C 
ATOM     11  N2  MOL A   1      18.376 -19.663  -5.681  1.00  0.00    -0.359 N 
ATOM     12  C3  MOL A   1      18.294 -18.349  -5.120  1.00  0.00     0.222 C 
ATOM     13  O4  MOL A   1      19.031 -17.425  -5.562  1.00  0.00    -0.275 OA
ENDBRANCH   9  12
ENDBRANCH   8   9
BRANCH   8  14
ATOM     14  N7  MOL A   1      15.175 -18.795  -4.963  1.00  0.00    -0.346 N 
ATOM     15  C8  MOL A   1      14.709 -19.773  -5.895  1.00  0.00     0.258 C 
ATOM     16  O9  MOL A   1      15.180 -20.941  -5.879  1.00  0.00    -0.271 OA
BRANCH  15  17
ATOM     17 C10  MOL A   1      13.644 -19.424  -6.891  1.00  0.00     0.167 C 
BRANCH  17  18
ATOM     18 O11  MOL A   1      14.175 -19.437  -8.214  1.00  0.00    -0.480 OA
BRANCH  18  19
ATOM     19 C12  MOL A   1      15.337 -18.738  -8.554  1.00  0.00     0.166 A 
ATOM     20 C13  MOL A   1      15.442 -17.345  -8.339  1.00  0.00     0.012 A 
ATOM     21 C21  MOL A   1      16.656 -16.697  -8.621  1.00  0.00    -0.054 A 
ATOM     22 C22  MOL A   1      17.731 -17.409  -9.153  1.00  0.00    -0.058 A 
ATOM     23 C23  MOL A   1      17.609 -18.774  -9.412  1.00  0.00    -0.016 A 
ATOM     24 C24  MOL A   1      16.409 -19.449  -9.118  1.00  0.00     0.161 A 
BRANCH  20  25
ATOM     25 C14  MOL A   1      14.280 -16.531  -7.813  1.00  0.00     0.028 C 
BRANCH  25  26
ATOM     26 N15  MOL A   1      14.760 -15.486  -6.885  1.00  0.00    -0.287 NA
ATOM     27 C16  MOL A   1      14.501 -15.848  -5.481  1.00  0.00     0.064 C 
ATOM     28 C17  MOL A   1      13.513 -14.713  -5.295  1.00  0.00     0.272 C 
ATOM     29 F18  MOL A   1      13.945 -13.740  -4.411  1.00  0.00    -0.204 F 
ATOM     30 F19  MOL A   1      12.213 -15.137  -5.072  1.00  0.00    -0.204 F 
ATOM     31 C20  MOL A   1      13.797 -14.381  -6.747  1.00  0.00     0.064 C 
ENDBRANCH  25  26
ENDBRANCH  20  25
BRANCH  24  32
ATOM     32 O25  MOL A   1      16.245 -20.820  -9.364  1.00  0.00    -0.493 OA
ATOM     33 C26  MOL A   1      17.224 -21.813  -9.074  1.00  0.00     0.078 C 
ENDBRANCH  24  32
ENDBRANCH  18  19
ENDBRANCH  17  18
ENDBRANCH  15  17
ENDBRANCH   8  14
ENDBRANCH   1   8
TORSDOF 10
ENDMDL
MODEL 419
REMARK VINA RESULT:    -6.990      6.087      9.871
REMARK INTER + INTRA:         -12.125
REMARK INTER:                 -11.296
REMARK INTRA:                  -0.829
REMARK UNBOUND:                -1.048
REMARK  10 active torsions:
REMARK  status: ('A' for Active; 'I' for Inactive)
REMARK   1   A    between atoms:  C27_1   and   C6_8  
REMARK   2   A    between atoms:  C6_8    and   C5_9  
REMARK   3   A    between atoms:  C5_9    and   C3_12 
REMARK   4   A    between atoms:  C6_8    and   N7_14 
REMARK   5   A    between atoms:  C8_15   and  C10_17 
REMARK   6   A    between atoms: C10_17   and  O11_18 
REMARK   7   A    between atoms: O11_18   and  C12_19 
REMARK   8   A    between atoms: C13_20   and  C14_25 
REMARK   9   A    between atoms: C14_25   and  N15_26 
REMARK   10  A    between atoms: C24_24   and  O25_32 
ROOT
ATOM      1 C27  MOL A   1       7.383 -20.007  -8.816  1.00  0.00    -0.024 A 
ATOM      2 C28  MOL A   1       7.114 -18.628  -8.746  1.00  0.00    -0.057 A 
ATOM      3 C29  MOL A   1       5.956 -18.164  -8.113  1.00  0.00    -0.061 A 
ATOM      4 C30  MOL A   1       5.057 -19.071  -7.545  1.00  0.00    -0.048 A 
ATOM      5 C31  MOL A   1       5.314 -20.445  -7.605  1.00  0.00     0.018 A 
ATOM      6 Br32 MOL A   1       4.093 -21.684  -6.808  1.00  0.00    -0.051 Br
ATOM      7 C33  MOL A   1       6.468 -20.912  -8.242  1.00  0.00    -0.043 A 
ENDROOT
BRANCH   1   8
ATOM      8  C6  MOL A   1       8.600 -20.504  -9.566  1.00  0.00     0.063 C 
BRANCH   8   9
ATOM      9  C5  MOL A   1       8.853 -21.986  -9.238  1.00  0.00     0.051 C 
BRANCH   9  12
ATOM     10  C1  MOL A   1      10.740 -24.683 -11.321  1.00  0.00     0.006 C 
ATOM     11  N2  MOL A   1      10.152 -23.950 -10.209  1.00  0.00    -0.359 N 
ATOM     12  C3  MOL A   1       9.457 -22.714 -10.404  1.00  0.00     0.222 C 
ATOM     13  O4  MOL A   1       9.345 -22.227 -11.562  1.00  0.00    -0.275 OA
ENDBRANCH   9  12
ENDBRANCH   8   9
BRANCH   8  14
ATOM     14  N7  MOL A   1       9.773 -19.692  -9.226  1.00  0.00    -0.346 N 
ATOM     15  C8  MOL A   1      10.378 -19.719  -7.932  1.00  0.00     0.258 C 
ATOM     16  O9  MOL A   1       9.903 -20.452  -7.024  1.00  0.00    -0.271 OA
BRANCH  15  17
ATOM     17 C10  MOL A   1      11.593 -18.889  -7.645  1.00  0.00     0.167 C 
BRANCH  17  18
ATOM     18 O11  MOL A   1      12.433 -19.544  -6.697  1.00  0.00    -0.480 OA
BRANCH  18  19
ATOM     19 C12  MOL A   1      13.741 -19.928  -7.007  1.00  0.00     0.166 A 
ATOM     20 C13  MOL A   1      14.834 -19.065  -6.760  1.00  0.00     0.012 A 
ATOM     21 C21  MOL A   1      16.138 -19.523  -7.013  1.00  0.00    -0.054 A 
ATOM     22 C22  MOL A   1      16.352 -20.794  -7.547  1.00  0.00    -0.058 A 
ATOM     23 C23  MOL A   1      15.269 -21.624  -7.836  1.00  0.00    -0.016 A 
ATOM     24 C24  MOL A   1      13.954 -21.195  -7.573  1.00  0.00     0.161 A 
BRANCH  20  25
ATOM     25 C14  MOL A   1      14.637 -17.661  -6.233  1.00  0.00     0.028 C 
BRANCH  25  26
ATOM     26 N15  MOL A   1      14.947 -16.668  -7.281  1.00  0.00    -0.287 NA
ATOM     27 C16  MOL A   1      15.528 -15.441  -6.710  1.00  0.00     0.064 C 
ATOM     28 C17  MOL A   1      14.331 -14.601  -7.111  1.00  0.00     0.272 C 
ATOM     29 F18  MOL A   1      14.616 -13.653  -8.079  1.00  0.00    -0.204 F 
ATOM     30 F19  MOL A   1      13.612 -14.106  -6.036  1.00  0.00    -0.204 F 
ATOM     31 C20  MOL A   1      13.762 -15.888  -7.676  1.00  0.00     0.064 C 
ENDBRANCH  25  26
ENDBRANCH  20  25
BRANCH  24  32
ATOM     32 O25  MOL A   1      12.839 -21.999  -7.850  1.00  0.00    -0.493 OA
ATOM     33 C26  MOL A   1      12.899 -23.395  -8.120  1.00  0.00     0.078 C 
ENDBRANCH  24  32
ENDBRANCH  18  19
ENDBRANCH  17  18
ENDBRANCH  15  17
ENDBRANCH   8  14
ENDBRANCH   1   8
TORSDOF 10
ENDMDL
MODEL 420
REMARK VINA RESULT:    -6.988      6.693     10.538
REMARK INTER + INTRA:         -12.121
REMARK INTER:                 -11.050
REMARK INTRA:                  -1.070
REMARK UNBOUND:                -1.048
REMARK  10 active torsions:
REMARK  status: ('A' for Active; 'I' for Inactive)
REMARK   1   A    between atoms:  C27_1   and   C6_8  
REMARK   2   A    between atoms:  C6_8    and   C5_9  
REMARK   3   A    between atoms:  C5_9    and   C3_12 
REMARK   4   A    between atoms:  C6_8    and   N7_14 
REMARK   5   A    between atoms:  C8_15   and  C10_17 
REMARK   6   A    between atoms: C10_17   and  O11_18 
REMARK   7   A    between atoms: O11_18   and  C12_19 
REMARK   8   A    between atoms: C13_20   and  C14_25 
REMARK   9   A    between atoms: C14_25   and  N15_26 
REMARK   10  A    between atoms: C24_24   and  O25_32 
ROOT
ATOM      1 C27  MOL A   1      17.442 -17.972  -9.342  1.00  0.00    -0.024 A 
ATOM      2 C28  MOL A   1      18.259 -19.065  -9.000  1.00  0.00    -0.057 A 
ATOM      3 C29  MOL A   1      19.475 -19.273  -9.661  1.00  0.00    -0.061 A 
ATOM      4 C30  MOL A   1      19.886 -18.394 -10.666  1.00  0.00    -0.048 A 
ATOM      5 C31  MOL A   1      19.084 -17.301 -11.014  1.00  0.00     0.018 A 
ATOM      6 Br32 MOL A   1      19.658 -16.086 -12.375  1.00  0.00    -0.051 Br
ATOM      7 C33  MOL A   1      17.865 -17.093 -10.359  1.00  0.00    -0.043 A 
ENDROOT
BRANCH   1   8
ATOM      8  C6  MOL A   1      16.095 -17.796  -8.674  1.00  0.00     0.063 C 
BRANCH   8   9
ATOM      9  C5  MOL A   1      16.192 -16.734  -7.564  1.00  0.00     0.051 C 
BRANCH   9  12
ATOM     10  C1  MOL A   1      12.727 -15.453  -6.328  1.00  0.00     0.006 C 
ATOM     11  N2  MOL A   1      13.955 -16.224  -6.458  1.00  0.00    -0.359 N 
ATOM     12  C3  MOL A   1      14.930 -15.926  -7.462  1.00  0.00     0.222 C 
ATOM     13  O4  MOL A   1      14.737 -14.977  -8.270  1.00  0.00    -0.275 OA
ENDBRANCH   9  12
ENDBRANCH   8   9
BRANCH   8  14
ATOM     14  N7  MOL A   1      15.628 -19.074  -8.127  1.00  0.00    -0.346 N 
ATOM     15  C8  MOL A   1      14.342 -19.617  -8.433  1.00  0.00     0.258 C 
ATOM     16  O9  MOL A   1      13.552 -18.993  -9.190  1.00  0.00    -0.271 OA
BRANCH  15  17
ATOM     17 C10  MOL A   1      13.924 -20.942  -7.867  1.00  0.00     0.167 C 
BRANCH  17  18
ATOM     18 O11  MOL A   1      12.541 -20.923  -7.523  1.00  0.00    -0.480 OA
BRANCH  18  19
ATOM     19 C12  MOL A   1      11.605 -21.731  -8.173  1.00  0.00     0.166 A 
ATOM     20 C13  MOL A   1      10.433 -21.181  -8.741  1.00  0.00     0.012 A 
ATOM     21 C21  MOL A   1       9.558 -22.018  -9.453  1.00  0.00    -0.054 A 
ATOM     22 C22  MOL A   1       9.816 -23.385  -9.560  1.00  0.00    -0.058 A 
ATOM     23 C23  MOL A   1      10.947 -23.934  -8.956  1.00  0.00    -0.016 A 
ATOM     24 C24  MOL A   1      11.848 -23.112  -8.254  1.00  0.00     0.161 A 
BRANCH  20  25
ATOM     25 C14  MOL A   1      10.093 -19.714  -8.600  1.00  0.00     0.028 C 
BRANCH  25  26
ATOM     26 N15  MOL A   1       9.013 -19.342  -9.538  1.00  0.00    -0.287 NA
ATOM     27 C16  MOL A   1       9.386 -18.179 -10.360  1.00  0.00     0.064 C 
ATOM     28 C17  MOL A   1       8.323 -17.301  -9.730  1.00  0.00     0.272 C 
ATOM     29 F18  MOL A   1       7.318 -16.931 -10.607  1.00  0.00    -0.204 F 
ATOM     30 F19  MOL A   1       8.835 -16.250  -8.988  1.00  0.00    -0.204 F 
ATOM     31 C20  MOL A   1       7.977 -18.517  -8.894  1.00  0.00     0.064 C 
ENDBRANCH  25  26
ENDBRANCH  20  25
BRANCH  24  32
ATOM     32 O25  MOL A   1      12.995 -23.625  -7.631  1.00  0.00    -0.493 OA
ATOM     33 C26  MOL A   1      13.013 -24.218  -6.337  1.00  0.00     0.078 C 
ENDBRANCH  24  32
ENDBRANCH  18  19
ENDBRANCH  17  18
ENDBRANCH  15  17
ENDBRANCH   8  14
ENDBRANCH   1   8
TORSDOF 10
ENDMDL
MODEL 421
REMARK VINA RESULT:    -6.986      5.528      9.946
REMARK INTER + INTRA:         -12.119
REMARK INTER:                 -10.505
REMARK INTRA:                  -1.614
REMARK UNBOUND:                -1.048
REMARK  10 active torsions:
REMARK  status: ('A' for Active; 'I' for Inactive)
REMARK   1   A    between atoms:  C27_1   and   C6_8  
REMARK   2   A    between atoms:  C6_8    and   C5_9  
REMARK   3   A    between atoms:  C5_9    and   C3_12 
REMARK   4   A    between atoms:  C6_8    and   N7_14 
REMARK   5   A    between atoms:  C8_15   and  C10_17 
REMARK   6   A    between atoms: C10_17   and  O11_18 
REMARK   7   A    between atoms: O11_18   and  C12_19 
REMARK   8   A    between atoms: C13_20   and  C14_25 
REMARK   9   A    between atoms: C14_25   and  N15_26 
REMARK   10  A    between atoms: C24_24   and  O25_32 
ROOT
ATOM      1 C27  MOL A   1      12.551 -16.328  -7.331  1.00  0.00    -0.024 A 
ATOM      2 C28  MOL A   1      12.310 -15.557  -6.179  1.00  0.00    -0.057 A 
ATOM      3 C29  MOL A   1      13.341 -14.806  -5.603  1.00  0.00    -0.061 A 
ATOM      4 C30  MOL A   1      14.619 -14.819  -6.168  1.00  0.00    -0.048 A 
ATOM      5 C31  MOL A   1      14.870 -15.580  -7.315  1.00  0.00     0.018 A 
ATOM      6 Br32 MOL A   1      16.615 -15.579  -8.101  1.00  0.00    -0.051 Br
ATOM      7 C33  MOL A   1      13.844 -16.335  -7.891  1.00  0.00    -0.043 A 
ENDROOT
BRANCH   1   8
ATOM      8  C6  MOL A   1      11.450 -17.194  -7.906  1.00  0.00     0.063 C 
BRANCH   8   9
ATOM      9  C5  MOL A   1      10.076 -16.668  -7.455  1.00  0.00     0.051 C 
BRANCH   9  12
ATOM     10  C1  MOL A   1       6.593 -16.885  -9.186  1.00  0.00     0.006 C 
ATOM     11  N2  MOL A   1       7.648 -16.606  -8.222  1.00  0.00    -0.359 N 
ATOM     12  C3  MOL A   1       9.009 -16.979  -8.464  1.00  0.00     0.222 C 
ATOM     13  O4  MOL A   1       9.322 -17.572  -9.533  1.00  0.00    -0.275 OA
ENDBRANCH   9  12
ENDBRANCH   8   9
BRANCH   8  14
ATOM     14  N7  MOL A   1      11.631 -18.589  -7.490  1.00  0.00    -0.346 N 
ATOM     15  C8  MOL A   1      12.024 -19.618  -8.401  1.00  0.00     0.258 C 
ATOM     16  O9  MOL A   1      12.220 -19.350  -9.616  1.00  0.00    -0.271 OA
BRANCH  15  17
ATOM     17 C10  MOL A   1      12.220 -21.023  -7.918  1.00  0.00     0.167 C 
BRANCH  17  18
ATOM     18 O11  MOL A   1      11.002 -21.758  -8.012  1.00  0.00    -0.480 OA
BRANCH  18  19
ATOM     19 C12  MOL A   1      10.820 -22.774  -8.955  1.00  0.00     0.166 A 
ATOM     20 C13  MOL A   1      10.006 -22.577 -10.094  1.00  0.00     0.012 A 
ATOM     21 C21  MOL A   1       9.915 -23.597 -11.056  1.00  0.00    -0.054 A 
ATOM     22 C22  MOL A   1      10.579 -24.808 -10.868  1.00  0.00    -0.058 A 
ATOM     23 C23  MOL A   1      11.341 -25.019  -9.719  1.00  0.00    -0.016 A 
ATOM     24 C24  MOL A   1      11.464 -24.005  -8.751  1.00  0.00     0.161 A 
BRANCH  20  25
ATOM     25 C14  MOL A   1       9.228 -21.297 -10.306  1.00  0.00     0.028 C 
BRANCH  25  26
ATOM     26 N15  MOL A   1       7.812 -21.596 -10.602  1.00  0.00    -0.287 NA
ATOM     27 C16  MOL A   1       6.986 -20.378 -10.585  1.00  0.00     0.064 C 
ATOM     28 C17  MOL A   1       6.205 -20.836  -9.369  1.00  0.00     0.272 C 
ATOM     29 F18  MOL A   1       4.872 -21.100  -9.632  1.00  0.00    -0.204 F 
ATOM     30 F19  MOL A   1       6.411 -20.052  -8.245  1.00  0.00    -0.204 F 
ATOM     31 C20  MOL A   1       7.084 -22.070  -9.412  1.00  0.00     0.064 C 
ENDBRANCH  25  26
ENDBRANCH  20  25
BRANCH  24  32
ATOM     32 O25  MOL A   1      12.219 -24.177  -7.582  1.00  0.00    -0.493 OA
ATOM     33 C26  MOL A   1      12.674 -25.435  -7.094  1.00  0.00     0.078 C 
ENDBRANCH  24  32
ENDBRANCH  18  19
ENDBRANCH  17  18
ENDBRANCH  15  17
ENDBRANCH   8  14
ENDBRANCH   1   8
TORSDOF 10
ENDMDL
MODEL 422
REMARK VINA RESULT:    -6.985      6.676     11.168
REMARK INTER + INTRA:         -12.117
REMARK INTER:                 -11.078
REMARK INTRA:                  -1.039
REMARK UNBOUND:                -1.048
REMARK  10 active torsions:
REMARK  status: ('A' for Active; 'I' for Inactive)
REMARK   1   A    between atoms:  C27_1   and   C6_8  
REMARK   2   A    between atoms:  C6_8    and   C5_9  
REMARK   3   A    between atoms:  C5_9    and   C3_12 
REMARK   4   A    between atoms:  C6_8    and   N7_14 
REMARK   5   A    between atoms:  C8_15   and  C10_17 
REMARK   6   A    between atoms: C10_17   and  O11_18 
REMARK   7   A    between atoms: O11_18   and  C12_19 
REMARK   8   A    between atoms: C13_20   and  C14_25 
REMARK   9   A    between atoms: C14_25   and  N15_26 
REMARK   10  A    between atoms: C24_24   and  O25_32 
ROOT
ATOM      1 C27  MOL A   1       9.811 -18.640  -9.376  1.00  0.00    -0.024 A 
ATOM      2 C28  MOL A   1       9.610 -18.660 -10.768  1.00  0.00    -0.057 A 
ATOM      3 C29  MOL A   1       8.438 -18.131 -11.321  1.00  0.00    -0.061 A 
ATOM      4 C30  MOL A   1       7.459 -17.578 -10.492  1.00  0.00    -0.048 A 
ATOM      5 C31  MOL A   1       7.648 -17.549  -9.106  1.00  0.00     0.018 A 
ATOM      6 Br32 MOL A   1       6.316 -16.772  -7.973  1.00  0.00    -0.051 Br
ATOM      7 C33  MOL A   1       8.815 -18.081  -8.549  1.00  0.00    -0.043 A 
ENDROOT
BRANCH   1   8
ATOM      8  C6  MOL A   1      11.047 -19.279  -8.780  1.00  0.00     0.063 C 
BRANCH   8   9
ATOM      9  C5  MOL A   1      10.645 -20.442  -7.855  1.00  0.00     0.051 C 
BRANCH   9  12
ATOM     10  C1  MOL A   1       9.794 -23.442 -10.189  1.00  0.00     0.006 C 
ATOM     11  N2  MOL A   1       9.725 -22.170  -9.483  1.00  0.00    -0.359 N 
ATOM     12  C3  MOL A   1      10.740 -21.764  -8.559  1.00  0.00     0.222 C 
ATOM     13  O4  MOL A   1      11.727 -22.517  -8.333  1.00  0.00    -0.275 OA
ENDBRANCH   9  12
ENDBRANCH   8   9
BRANCH   8  14
ATOM     14  N7  MOL A   1      11.831 -18.281  -8.045  1.00  0.00    -0.346 N 
ATOM     15  C8  MOL A   1      13.259 -18.305  -8.001  1.00  0.00     0.258 C 
ATOM     16  O9  MOL A   1      13.898 -19.212  -8.598  1.00  0.00    -0.271 OA
BRANCH  15  17
ATOM     17 C10  MOL A   1      14.013 -17.245  -7.255  1.00  0.00     0.167 C 
BRANCH  17  18
ATOM     18 O11  MOL A   1      15.307 -17.059  -7.824  1.00  0.00    -0.480 OA
BRANCH  18  19
ATOM     19 C12  MOL A   1      16.475 -17.389  -7.132  1.00  0.00     0.166 A 
ATOM     20 C13  MOL A   1      16.861 -16.683  -5.970  1.00  0.00     0.012 A 
ATOM     21 C21  MOL A   1      18.000 -17.100  -5.262  1.00  0.00    -0.054 A 
ATOM     22 C22  MOL A   1      18.771 -18.167  -5.724  1.00  0.00    -0.058 A 
ATOM     23 C23  MOL A   1      18.416 -18.830  -6.899  1.00  0.00    -0.016 A 
ATOM     24 C24  MOL A   1      17.268 -18.443  -7.615  1.00  0.00     0.161 A 
BRANCH  20  25
ATOM     25 C14  MOL A   1      16.081 -15.488  -5.468  1.00  0.00     0.028 C 
BRANCH  25  26
ATOM     26 N15  MOL A   1      15.939 -15.545  -3.999  1.00  0.00    -0.287 NA
ATOM     27 C16  MOL A   1      14.834 -16.431  -3.595  1.00  0.00     0.064 C 
ATOM     28 C17  MOL A   1      14.023 -15.283  -3.028  1.00  0.00     0.272 C 
ATOM     29 F18  MOL A   1      13.867 -15.339  -1.654  1.00  0.00    -0.204 F 
ATOM     30 F19  MOL A   1      12.847 -15.037  -3.717  1.00  0.00    -0.204 F 
ATOM     31 C20  MOL A   1      15.175 -14.402  -3.469  1.00  0.00     0.064 C 
ENDBRANCH  25  26
ENDBRANCH  20  25
BRANCH  24  32
ATOM     32 O25  MOL A   1      16.878 -19.083  -8.800  1.00  0.00    -0.493 OA
ATOM     33 C26  MOL A   1      17.240 -18.649 -10.107  1.00  0.00     0.078 C 
ENDBRANCH  24  32
ENDBRANCH  18  19
ENDBRANCH  17  18
ENDBRANCH  15  17
ENDBRANCH   8  14
ENDBRANCH   1   8
TORSDOF 10
ENDMDL
MODEL 423
REMARK VINA RESULT:    -6.984      5.705      9.433
REMARK INTER + INTRA:         -12.115
REMARK INTER:                 -10.911
REMARK INTRA:                  -1.204
REMARK UNBOUND:                -1.048
REMARK  10 active torsions:
REMARK  status: ('A' for Active; 'I' for Inactive)
REMARK   1   A    between atoms:  C27_1   and   C6_8  
REMARK   2   A    between atoms:  C6_8    and   C5_9  
REMARK   3   A    between atoms:  C5_9    and   C3_12 
REMARK   4   A    between atoms:  C6_8    and   N7_14 
REMARK   5   A    between atoms:  C8_15   and  C10_17 
REMARK   6   A    between atoms: C10_17   and  O11_18 
REMARK   7   A    between atoms: O11_18   and  C12_19 
REMARK   8   A    between atoms: C13_20   and  C14_25 
REMARK   9   A    between atoms: C14_25   and  N15_26 
REMARK   10  A    between atoms: C24_24   and  O25_32 
ROOT
ATOM      1 C27  MOL A   1      15.811 -18.047  -7.549  1.00  0.00    -0.024 A 
ATOM      2 C28  MOL A   1      16.060 -17.247  -8.679  1.00  0.00    -0.057 A 
ATOM      3 C29  MOL A   1      17.236 -17.414  -9.418  1.00  0.00    -0.061 A 
ATOM      4 C30  MOL A   1      18.173 -18.378  -9.037  1.00  0.00    -0.048 A 
ATOM      5 C31  MOL A   1      17.936 -19.183  -7.917  1.00  0.00     0.018 A 
ATOM      6 Br32 MOL A   1      19.209 -20.517  -7.409  1.00  0.00    -0.051 Br
ATOM      7 C33  MOL A   1      16.764 -19.015  -7.172  1.00  0.00    -0.043 A 
ENDROOT
BRANCH   1   8
ATOM      8  C6  MOL A   1      14.571 -17.811  -6.713  1.00  0.00     0.063 C 
BRANCH   8   9
ATOM      9  C5  MOL A   1      14.969 -17.434  -5.275  1.00  0.00     0.051 C 
BRANCH   9  12
ATOM     10  C1  MOL A   1      14.121 -14.060  -3.522  1.00  0.00     0.006 C 
ATOM     11  N2  MOL A   1      14.274 -15.482  -3.793  1.00  0.00    -0.359 N 
ATOM     12  C3  MOL A   1      14.815 -15.961  -5.029  1.00  0.00     0.222 C 
ATOM     13  O4  MOL A   1      15.169 -15.144  -5.923  1.00  0.00    -0.275 OA
ENDBRANCH   9  12
ENDBRANCH   8   9
BRANCH   8  14
ATOM     14  N7  MOL A   1      13.721 -19.006  -6.717  1.00  0.00    -0.346 N 
ATOM     15  C8  MOL A   1      12.526 -19.097  -7.494  1.00  0.00     0.258 C 
ATOM     16  O9  MOL A   1      12.156 -18.127  -8.207  1.00  0.00    -0.271 OA
BRANCH  15  17
ATOM     17 C10  MOL A   1      11.707 -20.353  -7.482  1.00  0.00     0.167 C 
BRANCH  17  18
ATOM     18 O11  MOL A   1      11.229 -20.651  -8.792  1.00  0.00    -0.480 OA
BRANCH  18  19
ATOM     19 C12  MOL A   1      10.079 -21.415  -9.006  1.00  0.00     0.166 A 
ATOM     20 C13  MOL A   1       8.799 -20.816  -9.041  1.00  0.00     0.012 A 
ATOM     21 C21  MOL A   1       7.679 -21.610  -9.337  1.00  0.00    -0.054 A 
ATOM     22 C22  MOL A   1       7.819 -22.982  -9.548  1.00  0.00    -0.058 A 
ATOM     23 C23  MOL A   1       9.077 -23.579  -9.464  1.00  0.00    -0.016 A 
ATOM     24 C24  MOL A   1      10.216 -22.801  -9.187  1.00  0.00     0.161 A 
BRANCH  20  25
ATOM     25 C14  MOL A   1       8.601 -19.342  -8.765  1.00  0.00     0.028 C 
BRANCH  25  26
ATOM     26 N15  MOL A   1       7.607 -18.772  -9.697  1.00  0.00    -0.287 NA
ATOM     27 C16  MOL A   1       8.222 -17.803 -10.620  1.00  0.00     0.064 C 
ATOM     28 C17  MOL A   1       7.449 -16.640 -10.031  1.00  0.00     0.272 C 
ATOM     29 F18  MOL A   1       6.529 -16.085 -10.904  1.00  0.00    -0.204 F 
ATOM     30 F19  MOL A   1       8.247 -15.707  -9.389  1.00  0.00    -0.204 F 
ATOM     31 C20  MOL A   1       6.847 -17.665  -9.090  1.00  0.00     0.064 C 
ENDBRANCH  25  26
ENDBRANCH  20  25
BRANCH  24  32
ATOM     32 O25  MOL A   1      11.498 -23.363  -9.093  1.00  0.00    -0.493 OA
ATOM     33 C26  MOL A   1      12.021 -23.984  -7.924  1.00  0.00     0.078 C 
ENDBRANCH  24  32
ENDBRANCH  18  19
ENDBRANCH  17  18
ENDBRANCH  15  17
ENDBRANCH   8  14
ENDBRANCH   1   8
TORSDOF 10
ENDMDL
MODEL 424
REMARK VINA RESULT:    -6.984      6.800      9.985
REMARK INTER + INTRA:         -12.115
REMARK INTER:                 -10.589
REMARK INTRA:                  -1.526
REMARK UNBOUND:                -1.048
REMARK  10 active torsions:
REMARK  status: ('A' for Active; 'I' for Inactive)
REMARK   1   A    between atoms:  C27_1   and   C6_8  
REMARK   2   A    between atoms:  C6_8    and   C5_9  
REMARK   3   A    between atoms:  C5_9    and   C3_12 
REMARK   4   A    between atoms:  C6_8    and   N7_14 
REMARK   5   A    between atoms:  C8_15   and  C10_17 
REMARK   6   A    between atoms: C10_17   and  O11_18 
REMARK   7   A    between atoms: O11_18   and  C12_19 
REMARK   8   A    between atoms: C13_20   and  C14_25 
REMARK   9   A    between atoms: C14_25   and  N15_26 
REMARK   10  A    between atoms: C24_24   and  O25_32 
ROOT
ATOM      1 C27  MOL A   1      15.961 -18.838  -6.150  1.00  0.00    -0.024 A 
ATOM      2 C28  MOL A   1      16.879 -19.609  -5.415  1.00  0.00    -0.057 A 
ATOM      3 C29  MOL A   1      17.205 -19.258  -4.100  1.00  0.00    -0.061 A 
ATOM      4 C30  MOL A   1      16.619 -18.136  -3.508  1.00  0.00    -0.048 A 
ATOM      5 C31  MOL A   1      15.702 -17.362  -4.228  1.00  0.00     0.018 A 
ATOM      6 Br32 MOL A   1      14.883 -15.838  -3.409  1.00  0.00    -0.051 Br
ATOM      7 C33  MOL A   1      15.378 -17.707  -5.544  1.00  0.00    -0.043 A 
ENDROOT
BRANCH   1   8
ATOM      8  C6  MOL A   1      15.669 -19.182  -7.595  1.00  0.00     0.063 C 
BRANCH   8   9
ATOM      9  C5  MOL A   1      16.444 -18.235  -8.529  1.00  0.00     0.051 C 
BRANCH   9  12
ATOM     10  C1  MOL A   1      19.776 -18.785 -10.471  1.00  0.00     0.006 C 
ATOM     11  N2  MOL A   1      18.594 -18.162  -9.894  1.00  0.00    -0.359 N 
ATOM     12  C3  MOL A   1      17.648 -18.909  -9.120  1.00  0.00     0.222 C 
ATOM     13  O4  MOL A   1      17.824 -20.143  -8.928  1.00  0.00    -0.275 OA
ENDBRANCH   9  12
ENDBRANCH   8   9
BRANCH   8  14
ATOM     14  N7  MOL A   1      14.228 -19.099  -7.856  1.00  0.00    -0.346 N 
ATOM     15  C8  MOL A   1      13.381 -20.250  -7.865  1.00  0.00     0.258 C 
ATOM     16  O9  MOL A   1      13.863 -21.395  -7.654  1.00  0.00    -0.271 OA
BRANCH  15  17
ATOM     17 C10  MOL A   1      11.909 -20.107  -8.112  1.00  0.00     0.167 C 
BRANCH  17  18
ATOM     18 O11  MOL A   1      11.654 -19.006  -8.981  1.00  0.00    -0.480 OA
BRANCH  18  19
ATOM     19 C12  MOL A   1      10.568 -18.147  -8.790  1.00  0.00     0.166 A 
ATOM     20 C13  MOL A   1       9.346 -18.352  -9.470  1.00  0.00     0.012 A 
ATOM     21 C21  MOL A   1       8.256 -17.512  -9.189  1.00  0.00    -0.054 A 
ATOM     22 C22  MOL A   1       8.390 -16.457  -8.286  1.00  0.00    -0.058 A 
ATOM     23 C23  MOL A   1       9.612 -16.225  -7.654  1.00  0.00    -0.016 A 
ATOM     24 C24  MOL A   1      10.712 -17.066  -7.905  1.00  0.00     0.161 A 
BRANCH  20  25
ATOM     25 C14  MOL A   1       9.179 -19.452 -10.495  1.00  0.00     0.028 C 
BRANCH  25  26
ATOM     26 N15  MOL A   1       8.285 -20.508  -9.977  1.00  0.00    -0.287 NA
ATOM     27 C16  MOL A   1       9.037 -21.715  -9.592  1.00  0.00     0.064 C 
ATOM     28 C17  MOL A   1       8.401 -22.549 -10.686  1.00  0.00     0.272 C 
ATOM     29 F18  MOL A   1       7.577 -23.554 -10.210  1.00  0.00    -0.204 F 
ATOM     30 F19  MOL A   1       9.294 -22.968 -11.659  1.00  0.00    -0.204 F 
ATOM     31 C20  MOL A   1       7.655 -21.283 -11.059  1.00  0.00     0.064 C 
ENDBRANCH  25  26
ENDBRANCH  20  25
BRANCH  24  32
ATOM     32 O25  MOL A   1      11.957 -16.867  -7.292  1.00  0.00    -0.493 OA
ATOM     33 C26  MOL A   1      12.271 -15.767  -6.444  1.00  0.00     0.078 C 
ENDBRANCH  24  32
ENDBRANCH  18  19
ENDBRANCH  17  18
ENDBRANCH  15  17
ENDBRANCH   8  14
ENDBRANCH   1   8
TORSDOF 10
ENDMDL
MODEL 425
REMARK VINA RESULT:    -6.980      6.584      9.972
REMARK INTER + INTRA:         -12.108
REMARK INTER:                 -10.310
REMARK INTRA:                  -1.799
REMARK UNBOUND:                -1.048
REMARK  10 active torsions:
REMARK  status: ('A' for Active; 'I' for Inactive)
REMARK   1   A    between atoms:  C27_1   and   C6_8  
REMARK   2   A    between atoms:  C6_8    and   C5_9  
REMARK   3   A    between atoms:  C5_9    and   C3_12 
REMARK   4   A    between atoms:  C6_8    and   N7_14 
REMARK   5   A    between atoms:  C8_15   and  C10_17 
REMARK   6   A    between atoms: C10_17   and  O11_18 
REMARK   7   A    between atoms: O11_18   and  C12_19 
REMARK   8   A    between atoms: C13_20   and  C14_25 
REMARK   9   A    between atoms: C14_25   and  N15_26 
REMARK   10  A    between atoms: C24_24   and  O25_32 
ROOT
ATOM      1 C27  MOL A   1      15.202 -18.039  -7.016  1.00  0.00    -0.024 A 
ATOM      2 C28  MOL A   1      14.515 -18.729  -6.000  1.00  0.00    -0.057 A 
ATOM      3 C29  MOL A   1      15.164 -19.718  -5.253  1.00  0.00    -0.061 A 
ATOM      4 C30  MOL A   1      16.502 -20.029  -5.513  1.00  0.00    -0.048 A 
ATOM      5 C31  MOL A   1      17.197 -19.348  -6.519  1.00  0.00     0.018 A 
ATOM      6 Br32 MOL A   1      19.034 -19.759  -6.859  1.00  0.00    -0.051 Br
ATOM      7 C33  MOL A   1      16.550 -18.362  -7.271  1.00  0.00    -0.043 A 
ENDROOT
BRANCH   1   8
ATOM      8  C6  MOL A   1      14.472 -17.022  -7.867  1.00  0.00     0.063 C 
BRANCH   8   9
ATOM      9  C5  MOL A   1      15.084 -15.625  -7.659  1.00  0.00     0.051 C 
BRANCH   9  12
ATOM     10  C1  MOL A   1      15.160 -14.777  -3.858  1.00  0.00     0.006 C 
ATOM     11  N2  MOL A   1      15.496 -15.327  -5.164  1.00  0.00    -0.359 N 
ATOM     12  C3  MOL A   1      14.705 -15.051  -6.325  1.00  0.00     0.222 C 
ATOM     13  O4  MOL A   1      13.682 -14.319  -6.233  1.00  0.00    -0.275 OA
ENDBRANCH   9  12
ENDBRANCH   8   9
BRANCH   8  14
ATOM     14  N7  MOL A   1      13.043 -17.015  -7.537  1.00  0.00    -0.346 N 
ATOM     15  C8  MOL A   1      12.037 -17.419  -8.468  1.00  0.00     0.258 C 
ATOM     16  O9  MOL A   1      12.357 -17.792  -9.627  1.00  0.00    -0.271 OA
BRANCH  15  17
ATOM     17 C10  MOL A   1      10.591 -17.417  -8.070  1.00  0.00     0.167 C 
BRANCH  17  18
ATOM     18 O11  MOL A   1       9.776 -17.873  -9.147  1.00  0.00    -0.480 OA
BRANCH  18  19
ATOM     19 C12  MOL A   1       8.732 -18.781  -8.954  1.00  0.00     0.166 A 
ATOM     20 C13  MOL A   1       8.978 -20.171  -8.867  1.00  0.00     0.012 A 
ATOM     21 C21  MOL A   1       7.909 -21.040  -8.593  1.00  0.00    -0.054 A 
ATOM     22 C22  MOL A   1       6.611 -20.546  -8.456  1.00  0.00    -0.058 A 
ATOM     23 C23  MOL A   1       6.363 -19.180  -8.593  1.00  0.00    -0.016 A 
ATOM     24 C24  MOL A   1       7.421 -18.287  -8.847  1.00  0.00     0.161 A 
BRANCH  20  25
ATOM     25 C14  MOL A   1      10.362 -20.748  -9.062  1.00  0.00     0.028 C 
BRANCH  25  26
ATOM     26 N15  MOL A   1      10.770 -21.523  -7.872  1.00  0.00    -0.287 NA
ATOM     27 C16  MOL A   1      11.760 -20.792  -7.063  1.00  0.00     0.064 C 
ATOM     28 C17  MOL A   1      12.852 -21.803  -7.352  1.00  0.00     0.272 C 
ATOM     29 F18  MOL A   1      13.256 -22.519  -6.239  1.00  0.00    -0.204 F 
ATOM     30 F19  MOL A   1      13.899 -21.293  -8.102  1.00  0.00    -0.204 F 
ATOM     31 C20  MOL A   1      11.808 -22.519  -8.186  1.00  0.00     0.064 C 
ENDBRANCH  25  26
ENDBRANCH  20  25
BRANCH  24  32
ATOM     32 O25  MOL A   1       7.214 -16.908  -8.992  1.00  0.00    -0.493 OA
ATOM     33 C26  MOL A   1       7.301 -16.206 -10.228  1.00  0.00     0.078 C 
ENDBRANCH  24  32
ENDBRANCH  18  19
ENDBRANCH  17  18
ENDBRANCH  15  17
ENDBRANCH   8  14
ENDBRANCH   1   8
TORSDOF 10
ENDMDL
MODEL 426
REMARK VINA RESULT:    -6.978      4.180      8.603
REMARK INTER + INTRA:         -12.106
REMARK INTER:                 -11.818
REMARK INTRA:                  -0.288
REMARK UNBOUND:                -1.048
REMARK  10 active torsions:
REMARK  status: ('A' for Active; 'I' for Inactive)
REMARK   1   A    between atoms:  C27_1   and   C6_8  
REMARK   2   A    between atoms:  C6_8    and   C5_9  
REMARK   3   A    between atoms:  C5_9    and   C3_12 
REMARK   4   A    between atoms:  C6_8    and   N7_14 
REMARK   5   A    between atoms:  C8_15   and  C10_17 
REMARK   6   A    between atoms: C10_17   and  O11_18 
REMARK   7   A    between atoms: O11_18   and  C12_19 
REMARK   8   A    between atoms: C13_20   and  C14_25 
REMARK   9   A    between atoms: C14_25   and  N15_26 
REMARK   10  A    between atoms: C24_24   and  O25_32 
ROOT
ATOM      1 C27  MOL A   1       3.929 -14.685  -9.953  1.00  0.00    -0.024 A 
ATOM      2 C28  MOL A   1       3.447 -15.183  -8.729  1.00  0.00    -0.057 A 
ATOM      3 C29  MOL A   1       2.162 -14.850  -8.286  1.00  0.00    -0.061 A 
ATOM      4 C30  MOL A   1       1.348 -14.018  -9.059  1.00  0.00    -0.048 A 
ATOM      5 C31  MOL A   1       1.813 -13.518 -10.280  1.00  0.00     0.018 A 
ATOM      6 Br32 MOL A   1       0.689 -12.398 -11.348  1.00  0.00    -0.051 Br
ATOM      7 C33  MOL A   1       3.099 -13.845 -10.724  1.00  0.00    -0.043 A 
ENDROOT
BRANCH   1   8
ATOM      8  C6  MOL A   1       5.345 -14.990 -10.390  1.00  0.00     0.063 C 
BRANCH   8   9
ATOM      9  C5  MOL A   1       5.447 -14.935 -11.925  1.00  0.00     0.051 C 
BRANCH   9  12
ATOM     10  C1  MOL A   1       4.417 -11.870 -14.097  1.00  0.00     0.006 C 
ATOM     11  N2  MOL A   1       4.547 -13.227 -13.587  1.00  0.00    -0.359 N 
ATOM     12  C3  MOL A   1       5.341 -13.526 -12.434  1.00  0.00     0.222 C 
ATOM     13  O4  MOL A   1       5.957 -12.604 -11.833  1.00  0.00    -0.275 OA
ENDBRANCH   9  12
ENDBRANCH   8   9
BRANCH   8  14
ATOM     14  N7  MOL A   1       5.758 -16.307  -9.893  1.00  0.00    -0.346 N 
ATOM     15  C8  MOL A   1       7.110 -16.607  -9.542  1.00  0.00     0.258 C 
ATOM     16  O9  MOL A   1       8.008 -15.731  -9.663  1.00  0.00    -0.271 OA
BRANCH  15  17
ATOM     17 C10  MOL A   1       7.474 -17.962  -9.013  1.00  0.00     0.167 C 
BRANCH  17  18
ATOM     18 O11  MOL A   1       7.476 -18.924 -10.064  1.00  0.00    -0.480 OA
BRANCH  18  19
ATOM     19 C12  MOL A   1       7.777 -20.270  -9.838  1.00  0.00     0.166 A 
ATOM     20 C13  MOL A   1       6.769 -21.194  -9.480  1.00  0.00     0.012 A 
ATOM     21 C21  MOL A   1       7.102 -22.552  -9.339  1.00  0.00    -0.054 A 
ATOM     22 C22  MOL A   1       8.420 -22.977  -9.502  1.00  0.00    -0.058 A 
ATOM     23 C23  MOL A   1       9.422 -22.056  -9.806  1.00  0.00    -0.016 A 
ATOM     24 C24  MOL A   1       9.109 -20.694  -9.972  1.00  0.00     0.161 A 
BRANCH  20  25
ATOM     25 C14  MOL A   1       5.339 -20.761  -9.242  1.00  0.00     0.028 C 
BRANCH  25  26
ATOM     26 N15  MOL A   1       4.570 -21.850  -8.605  1.00  0.00    -0.287 NA
ATOM     27 C16  MOL A   1       3.168 -21.859  -9.056  1.00  0.00     0.064 C 
ATOM     28 C17  MOL A   1       2.646 -21.496  -7.680  1.00  0.00     0.272 C 
ATOM     29 F18  MOL A   1       1.906 -22.502  -7.083  1.00  0.00    -0.204 F 
ATOM     30 F19  MOL A   1       2.046 -20.249  -7.622  1.00  0.00    -0.204 F 
ATOM     31 C20  MOL A   1       4.101 -21.484  -7.257  1.00  0.00     0.064 C 
ENDBRANCH  25  26
ENDBRANCH  20  25
BRANCH  24  32
ATOM     32 O25  MOL A   1      10.086 -19.735 -10.276  1.00  0.00    -0.493 OA
ATOM     33 C26  MOL A   1      11.135 -19.346  -9.395  1.00  0.00     0.078 C 
ENDBRANCH  24  32
ENDBRANCH  18  19
ENDBRANCH  17  18
ENDBRANCH  15  17
ENDBRANCH   8  14
ENDBRANCH   1   8
TORSDOF 10
ENDMDL
MODEL 427
REMARK VINA RESULT:    -6.977      8.056     12.363
REMARK INTER + INTRA:         -12.105
REMARK INTER:                 -10.623
REMARK INTRA:                  -1.482
REMARK UNBOUND:                -1.048
REMARK  10 active torsions:
REMARK  status: ('A' for Active; 'I' for Inactive)
REMARK   1   A    between atoms:  C27_1   and   C6_8  
REMARK   2   A    between atoms:  C6_8    and   C5_9  
REMARK   3   A    between atoms:  C5_9    and   C3_12 
REMARK   4   A    between atoms:  C6_8    and   N7_14 
REMARK   5   A    between atoms:  C8_15   and  C10_17 
REMARK   6   A    between atoms: C10_17   and  O11_18 
REMARK   7   A    between atoms: O11_18   and  C12_19 
REMARK   8   A    between atoms: C13_20   and  C14_25 
REMARK   9   A    between atoms: C14_25   and  N15_26 
REMARK   10  A    between atoms: C24_24   and  O25_32 
ROOT
ATOM      1 C27  MOL A   1      15.335 -18.028  -1.224  1.00  0.00    -0.024 A 
ATOM      2 C28  MOL A   1      15.022 -19.121  -2.052  1.00  0.00    -0.057 A 
ATOM      3 C29  MOL A   1      15.087 -20.427  -1.556  1.00  0.00    -0.061 A 
ATOM      4 C30  MOL A   1      15.464 -20.655  -0.230  1.00  0.00    -0.048 A 
ATOM      5 C31  MOL A   1      15.775 -19.577   0.606  1.00  0.00     0.018 A 
ATOM      6 Br32 MOL A   1      16.271 -19.889   2.428  1.00  0.00    -0.051 Br
ATOM      7 C33  MOL A   1      15.717 -18.270   0.112  1.00  0.00    -0.043 A 
ENDROOT
BRANCH   1   8
ATOM      8  C6  MOL A   1      15.333 -16.624  -1.789  1.00  0.00     0.063 C 
BRANCH   8   9
ATOM      9  C5  MOL A   1      14.368 -15.734  -0.985  1.00  0.00     0.051 C 
BRANCH   9  12
ATOM     10  C1  MOL A   1      16.791 -13.673   1.263  1.00  0.00     0.006 C 
ATOM     11  N2  MOL A   1      16.075 -14.781   0.648  1.00  0.00    -0.359 N 
ATOM     12  C3  MOL A   1      15.083 -14.569  -0.363  1.00  0.00     0.222 C 
ATOM     13  O4  MOL A   1      14.804 -13.399  -0.740  1.00  0.00    -0.275 OA
ENDBRANCH   9  12
ENDBRANCH   8   9
BRANCH   8  14
ATOM     14  N7  MOL A   1      14.956 -16.647  -3.206  1.00  0.00    -0.346 N 
ATOM     15  C8  MOL A   1      15.490 -15.726  -4.159  1.00  0.00     0.258 C 
ATOM     16  O9  MOL A   1      16.312 -14.842  -3.797  1.00  0.00    -0.271 OA
BRANCH  15  17
ATOM     17 C10  MOL A   1      15.091 -15.811  -5.602  1.00  0.00     0.167 C 
BRANCH  17  18
ATOM     18 O11  MOL A   1      14.513 -17.083  -5.886  1.00  0.00    -0.480 OA
BRANCH  18  19
ATOM     19 C12  MOL A   1      14.956 -17.879  -6.945  1.00  0.00     0.166 A 
ATOM     20 C13  MOL A   1      14.258 -17.917  -8.173  1.00  0.00     0.012 A 
ATOM     21 C21  MOL A   1      14.783 -18.669  -9.237  1.00  0.00    -0.054 A 
ATOM     22 C22  MOL A   1      15.954 -19.409  -9.071  1.00  0.00    -0.058 A 
ATOM     23 C23  MOL A   1      16.614 -19.410  -7.842  1.00  0.00    -0.016 A 
ATOM     24 C24  MOL A   1      16.118 -18.648  -6.768  1.00  0.00     0.161 A 
BRANCH  20  25
ATOM     25 C14  MOL A   1      12.957 -17.171  -8.374  1.00  0.00     0.028 C 
BRANCH  25  26
ATOM     26 N15  MOL A   1      11.862 -17.838  -7.641  1.00  0.00    -0.287 NA
ATOM     27 C16  MOL A   1      11.345 -19.002  -8.381  1.00  0.00     0.064 C 
ATOM     28 C17  MOL A   1       9.994 -18.352  -8.604  1.00  0.00     0.272 C 
ATOM     29 F18  MOL A   1       8.957 -18.983  -7.938  1.00  0.00    -0.204 F 
ATOM     30 F19  MOL A   1       9.721 -18.077  -9.934  1.00  0.00    -0.204 F 
ATOM     31 C20  MOL A   1      10.566 -17.169  -7.849  1.00  0.00     0.064 C 
ENDBRANCH  25  26
ENDBRANCH  20  25
BRANCH  24  32
ATOM     32 O25  MOL A   1      16.751 -18.622  -5.517  1.00  0.00    -0.493 OA
ATOM     33 C26  MOL A   1      18.142 -18.385  -5.323  1.00  0.00     0.078 C 
ENDBRANCH  24  32
ENDBRANCH  18  19
ENDBRANCH  17  18
ENDBRANCH  15  17
ENDBRANCH   8  14
ENDBRANCH   1   8
TORSDOF 10
ENDMDL
MODEL 428
REMARK VINA RESULT:    -6.977      5.457      8.815
REMARK INTER + INTRA:         -12.104
REMARK INTER:                 -10.853
REMARK INTRA:                  -1.252
REMARK UNBOUND:                -1.048
REMARK  10 active torsions:
REMARK  status: ('A' for Active; 'I' for Inactive)
REMARK   1   A    between atoms:  C27_1   and   C6_8  
REMARK   2   A    between atoms:  C6_8    and   C5_9  
REMARK   3   A    between atoms:  C5_9    and   C3_12 
REMARK   4   A    between atoms:  C6_8    and   N7_14 
REMARK   5   A    between atoms:  C8_15   and  C10_17 
REMARK   6   A    between atoms: C10_17   and  O11_18 
REMARK   7   A    between atoms: O11_18   and  C12_19 
REMARK   8   A    between atoms: C13_20   and  C14_25 
REMARK   9   A    between atoms: C14_25   and  N15_26 
REMARK   10  A    between atoms: C24_24   and  O25_32 
ROOT
ATOM      1 C27  MOL A   1      14.858 -19.191  -7.229  1.00  0.00    -0.024 A 
ATOM      2 C28  MOL A   1      14.625 -18.198  -8.199  1.00  0.00    -0.057 A 
ATOM      3 C29  MOL A   1      15.413 -17.043  -8.232  1.00  0.00    -0.061 A 
ATOM      4 C30  MOL A   1      16.439 -16.867  -7.300  1.00  0.00    -0.048 A 
ATOM      5 C31  MOL A   1      16.684 -17.848  -6.332  1.00  0.00     0.018 A 
ATOM      6 Br32 MOL A   1      18.103 -17.616  -5.070  1.00  0.00    -0.051 Br
ATOM      7 C33  MOL A   1      15.894 -19.002  -6.292  1.00  0.00    -0.043 A 
ENDROOT
BRANCH   1   8
ATOM      8  C6  MOL A   1      13.954 -20.403  -7.154  1.00  0.00     0.063 C 
BRANCH   8   9
ATOM      9  C5  MOL A   1      14.752 -21.676  -7.488  1.00  0.00     0.051 C 
BRANCH   9  12
ATOM     10  C1  MOL A   1      12.364 -24.507  -6.280  1.00  0.00     0.006 C 
ATOM     11  N2  MOL A   1      13.233 -23.339  -6.298  1.00  0.00    -0.359 N 
ATOM     12  C3  MOL A   1      13.870 -22.891  -7.500  1.00  0.00     0.222 C 
ATOM     13  O4  MOL A   1      13.691 -23.515  -8.581  1.00  0.00    -0.275 OA
ENDBRANCH   9  12
ENDBRANCH   8   9
BRANCH   8  14
ATOM     14  N7  MOL A   1      12.820 -20.249  -8.072  1.00  0.00    -0.346 N 
ATOM     15  C8  MOL A   1      11.464 -20.241  -7.623  1.00  0.00     0.258 C 
ATOM     16  O9  MOL A   1      11.199 -20.380  -6.399  1.00  0.00    -0.271 OA
BRANCH  15  17
ATOM     17 C10  MOL A   1      10.342 -20.054  -8.601  1.00  0.00     0.167 C 
BRANCH  17  18
ATOM     18 O11  MOL A   1       9.129 -20.589  -8.077  1.00  0.00    -0.480 OA
BRANCH  18  19
ATOM     19 C12  MOL A   1       8.156 -21.164  -8.899  1.00  0.00     0.166 A 
ATOM     20 C13  MOL A   1       6.896 -20.549  -9.080  1.00  0.00     0.012 A 
ATOM     21 C21  MOL A   1       5.978 -21.120  -9.977  1.00  0.00    -0.054 A 
ATOM     22 C22  MOL A   1       6.285 -22.305 -10.646  1.00  0.00    -0.058 A 
ATOM     23 C23  MOL A   1       7.509 -22.936 -10.428  1.00  0.00    -0.016 A 
ATOM     24 C24  MOL A   1       8.453 -22.373  -9.550  1.00  0.00     0.161 A 
BRANCH  20  25
ATOM     25 C14  MOL A   1       6.507 -19.294  -8.331  1.00  0.00     0.028 C 
BRANCH  25  26
ATOM     26 N15  MOL A   1       6.322 -18.169  -9.271  1.00  0.00    -0.287 NA
ATOM     27 C16  MOL A   1       7.523 -17.948 -10.094  1.00  0.00     0.064 C 
ATOM     28 C17  MOL A   1       7.791 -16.594  -9.468  1.00  0.00     0.272 C 
ATOM     29 F18  MOL A   1       7.640 -15.535 -10.347  1.00  0.00    -0.204 F 
ATOM     30 F19  MOL A   1       8.960 -16.544  -8.726  1.00  0.00    -0.204 F 
ATOM     31 C20  MOL A   1       6.557 -16.864  -8.630  1.00  0.00     0.064 C 
ENDBRANCH  25  26
ENDBRANCH  20  25
BRANCH  24  32
ATOM     32 O25  MOL A   1       9.694 -22.976  -9.302  1.00  0.00    -0.493 OA
ATOM     33 C26  MOL A   1      10.162 -24.152  -9.954  1.00  0.00     0.078 C 
ENDBRANCH  24  32
ENDBRANCH  18  19
ENDBRANCH  17  18
ENDBRANCH  15  17
ENDBRANCH   8  14
ENDBRANCH   1   8
TORSDOF 10
ENDMDL
MODEL 429
REMARK VINA RESULT:    -6.977      5.575     10.785
REMARK INTER + INTRA:         -12.103
REMARK INTER:                 -11.297
REMARK INTRA:                  -0.806
REMARK UNBOUND:                -1.048
REMARK  10 active torsions:
REMARK  status: ('A' for Active; 'I' for Inactive)
REMARK   1   A    between atoms:  C27_1   and   C6_8  
REMARK   2   A    between atoms:  C6_8    and   C5_9  
REMARK   3   A    between atoms:  C5_9    and   C3_12 
REMARK   4   A    between atoms:  C6_8    and   N7_14 
REMARK   5   A    between atoms:  C8_15   and  C10_17 
REMARK   6   A    between atoms: C10_17   and  O11_18 
REMARK   7   A    between atoms: O11_18   and  C12_19 
REMARK   8   A    between atoms: C13_20   and  C14_25 
REMARK   9   A    between atoms: C14_25   and  N15_26 
REMARK   10  A    between atoms: C24_24   and  O25_32 
ROOT
ATOM      1 C27  MOL A   1       9.377 -20.416  -8.467  1.00  0.00    -0.024 A 
ATOM      2 C28  MOL A   1       7.982 -20.442  -8.291  1.00  0.00    -0.057 A 
ATOM      3 C29  MOL A   1       7.232 -21.532  -8.748  1.00  0.00    -0.061 A 
ATOM      4 C30  MOL A   1       7.866 -22.602  -9.384  1.00  0.00    -0.048 A 
ATOM      5 C31  MOL A   1       9.254 -22.590  -9.562  1.00  0.00     0.018 A 
ATOM      6 Br32 MOL A   1      10.124 -24.066 -10.413  1.00  0.00    -0.051 Br
ATOM      7 C33  MOL A   1      10.006 -21.500  -9.112  1.00  0.00    -0.043 A 
ENDROOT
BRANCH   1   8
ATOM      8  C6  MOL A   1      10.172 -19.202  -8.035  1.00  0.00     0.063 C 
BRANCH   8   9
ATOM      9  C5  MOL A   1      10.255 -18.188  -9.191  1.00  0.00     0.051 C 
BRANCH   9  12
ATOM     10  C1  MOL A   1       6.988 -16.340 -10.234  1.00  0.00     0.006 C 
ATOM     11  N2  MOL A   1       8.129 -17.244 -10.229  1.00  0.00    -0.359 N 
ATOM     12  C3  MOL A   1       9.094 -17.236  -9.171  1.00  0.00     0.222 C 
ATOM     13  O4  MOL A   1       8.973 -16.427  -8.211  1.00  0.00    -0.275 OA
ENDBRANCH   9  12
ENDBRANCH   8   9
BRANCH   8  14
ATOM     14  N7  MOL A   1      11.515 -19.601  -7.602  1.00  0.00    -0.346 N 
ATOM     15  C8  MOL A   1      12.539 -18.652  -7.298  1.00  0.00     0.258 C 
ATOM     16  O9  MOL A   1      12.314 -17.418  -7.407  1.00  0.00    -0.271 OA
BRANCH  15  17
ATOM     17 C10  MOL A   1      13.888 -19.114  -6.833  1.00  0.00     0.167 C 
BRANCH  17  18
ATOM     18 O11  MOL A   1      14.918 -18.347  -7.451  1.00  0.00    -0.480 OA
BRANCH  18  19
ATOM     19 C12  MOL A   1      16.171 -18.174  -6.857  1.00  0.00     0.166 A 
ATOM     20 C13  MOL A   1      16.500 -16.976  -6.181  1.00  0.00     0.012 A 
ATOM     21 C21  MOL A   1      17.741 -16.876  -5.530  1.00  0.00    -0.054 A 
ATOM     22 C22  MOL A   1      18.659 -17.924  -5.590  1.00  0.00    -0.058 A 
ATOM     23 C23  MOL A   1      18.352 -19.085  -6.300  1.00  0.00    -0.016 A 
ATOM     24 C24  MOL A   1      17.107 -19.217  -6.943  1.00  0.00     0.161 A 
BRANCH  20  25
ATOM     25 C14  MOL A   1      15.552 -15.798  -6.140  1.00  0.00     0.028 C 
BRANCH  25  26
ATOM     26 N15  MOL A   1      14.472 -16.039  -5.162  1.00  0.00    -0.287 NA
ATOM     27 C16  MOL A   1      13.388 -15.051  -5.297  1.00  0.00     0.064 C 
ATOM     28 C17  MOL A   1      13.669 -14.448  -3.935  1.00  0.00     0.272 C 
ATOM     29 F18  MOL A   1      12.653 -14.651  -3.017  1.00  0.00    -0.204 F 
ATOM     30 F19  MOL A   1      14.125 -13.141  -3.987  1.00  0.00    -0.204 F 
ATOM     31 C20  MOL A   1      14.784 -15.471  -3.839  1.00  0.00     0.064 C 
ENDBRANCH  25  26
ENDBRANCH  20  25
BRANCH  24  32
ATOM     32 O25  MOL A   1      16.761 -20.367  -7.668  1.00  0.00    -0.493 OA
ATOM     33 C26  MOL A   1      16.823 -21.693  -7.153  1.00  0.00     0.078 C 
ENDBRANCH  24  32
ENDBRANCH  18  19
ENDBRANCH  17  18
ENDBRANCH  15  17
ENDBRANCH   8  14
ENDBRANCH   1   8
TORSDOF 10
ENDMDL
MODEL 430
REMARK VINA RESULT:    -6.975      5.913     10.844
REMARK INTER + INTRA:         -12.101
REMARK INTER:                 -11.318
REMARK INTRA:                  -0.783
REMARK UNBOUND:                -1.048
REMARK  10 active torsions:
REMARK  status: ('A' for Active; 'I' for Inactive)
REMARK   1   A    between atoms:  C27_1   and   C6_8  
REMARK   2   A    between atoms:  C6_8    and   C5_9  
REMARK   3   A    between atoms:  C5_9    and   C3_12 
REMARK   4   A    between atoms:  C6_8    and   N7_14 
REMARK   5   A    between atoms:  C8_15   and  C10_17 
REMARK   6   A    between atoms: C10_17   and  O11_18 
REMARK   7   A    between atoms: O11_18   and  C12_19 
REMARK   8   A    between atoms: C13_20   and  C14_25 
REMARK   9   A    between atoms: C14_25   and  N15_26 
REMARK   10  A    between atoms: C24_24   and  O25_32 
ROOT
ATOM      1 C27  MOL A   1       8.084 -17.397  -9.831  1.00  0.00    -0.024 A 
ATOM      2 C28  MOL A   1       7.573 -17.455  -8.522  1.00  0.00    -0.057 A 
ATOM      3 C29  MOL A   1       6.394 -16.777  -8.192  1.00  0.00    -0.061 A 
ATOM      4 C30  MOL A   1       5.717 -16.034  -9.163  1.00  0.00    -0.048 A 
ATOM      5 C31  MOL A   1       6.214 -15.970 -10.469  1.00  0.00     0.018 A 
ATOM      6 Br32 MOL A   1       5.274 -14.971 -11.803  1.00  0.00    -0.051 Br
ATOM      7 C33  MOL A   1       7.394 -16.643 -10.802  1.00  0.00    -0.043 A 
ENDROOT
BRANCH   1   8
ATOM      8  C6  MOL A   1       9.397 -18.073 -10.162  1.00  0.00     0.063 C 
BRANCH   8   9
ATOM      9  C5  MOL A   1       9.137 -19.384 -10.926  1.00  0.00     0.051 C 
BRANCH   9  12
ATOM     10  C1  MOL A   1       6.901 -21.566  -8.599  1.00  0.00     0.006 C 
ATOM     11  N2  MOL A   1       8.042 -20.858  -9.160  1.00  0.00    -0.359 N 
ATOM     12  C3  MOL A   1       7.944 -20.112 -10.378  1.00  0.00     0.222 C 
ATOM     13  O4  MOL A   1       6.848 -20.060 -11.001  1.00  0.00    -0.275 OA
ENDBRANCH   9  12
ENDBRANCH   8   9
BRANCH   8  14
ATOM     14  N7  MOL A   1      10.159 -18.333  -8.935  1.00  0.00    -0.346 N 
ATOM     15  C8  MOL A   1      11.574 -18.152  -8.856  1.00  0.00     0.258 C 
ATOM     16  O9  MOL A   1      12.223 -17.766  -9.864  1.00  0.00    -0.271 OA
BRANCH  15  17
ATOM     17 C10  MOL A   1      12.300 -18.407  -7.569  1.00  0.00     0.167 C 
BRANCH  17  18
ATOM     18 O11  MOL A   1      13.642 -17.933  -7.651  1.00  0.00    -0.480 OA
BRANCH  18  19
ATOM     19 C12  MOL A   1      14.507 -17.962  -6.553  1.00  0.00     0.166 A 
ATOM     20 C13  MOL A   1      15.162 -19.155  -6.170  1.00  0.00     0.012 A 
ATOM     21 C21  MOL A   1      16.083 -19.121  -5.110  1.00  0.00    -0.054 A 
ATOM     22 C22  MOL A   1      16.314 -17.936  -4.411  1.00  0.00    -0.058 A 
ATOM     23 C23  MOL A   1      15.630 -16.771  -4.759  1.00  0.00    -0.016 A 
ATOM     24 C24  MOL A   1      14.717 -16.777  -5.830  1.00  0.00     0.161 A 
BRANCH  20  25
ATOM     25 C14  MOL A   1      14.896 -20.470  -6.869  1.00  0.00     0.028 C 
BRANCH  25  26
ATOM     26 N15  MOL A   1      14.339 -21.455  -5.920  1.00  0.00    -0.287 NA
ATOM     27 C16  MOL A   1      14.485 -22.833  -6.422  1.00  0.00     0.064 C 
ATOM     28 C17  MOL A   1      12.987 -23.018  -6.563  1.00  0.00     0.272 C 
ATOM     29 F18  MOL A   1      12.458 -23.955  -5.692  1.00  0.00    -0.204 F 
ATOM     30 F19  MOL A   1      12.564 -23.169  -7.874  1.00  0.00    -0.204 F 
ATOM     31 C20  MOL A   1      12.878 -21.593  -6.056  1.00  0.00     0.064 C 
ENDBRANCH  25  26
ENDBRANCH  20  25
BRANCH  24  32
ATOM     32 O25  MOL A   1      14.008 -15.628  -6.211  1.00  0.00    -0.493 OA
ATOM     33 C26  MOL A   1      12.727 -15.268  -5.705  1.00  0.00     0.078 C 
ENDBRANCH  24  32
ENDBRANCH  18  19
ENDBRANCH  17  18
ENDBRANCH  15  17
ENDBRANCH   8  14
ENDBRANCH   1   8
TORSDOF 10
ENDMDL
MODEL 431
REMARK VINA RESULT:    -6.972      3.822      8.337
REMARK INTER + INTRA:         -12.096
REMARK INTER:                 -12.009
REMARK INTRA:                  -0.087
REMARK UNBOUND:                -1.048
REMARK  10 active torsions:
REMARK  status: ('A' for Active; 'I' for Inactive)
REMARK   1   A    between atoms:  C27_1   and   C6_8  
REMARK   2   A    between atoms:  C6_8    and   C5_9  
REMARK   3   A    between atoms:  C5_9    and   C3_12 
REMARK   4   A    between atoms:  C6_8    and   N7_14 
REMARK   5   A    between atoms:  C8_15   and  C10_17 
REMARK   6   A    between atoms: C10_17   and  O11_18 
REMARK   7   A    between atoms: O11_18   and  C12_19 
REMARK   8   A    between atoms: C13_20   and  C14_25 
REMARK   9   A    between atoms: C14_25   and  N15_26 
REMARK   10  A    between atoms: C24_24   and  O25_32 
ROOT
ATOM      1 C27  MOL A   1       5.566 -15.755  -9.137  1.00  0.00    -0.024 A 
ATOM      2 C28  MOL A   1       5.983 -16.466  -7.998  1.00  0.00    -0.057 A 
ATOM      3 C29  MOL A   1       5.107 -16.662  -6.925  1.00  0.00    -0.061 A 
ATOM      4 C30  MOL A   1       3.807 -16.150  -6.979  1.00  0.00    -0.048 A 
ATOM      5 C31  MOL A   1       3.378 -15.443  -8.108  1.00  0.00     0.018 A 
ATOM      6 Br32 MOL A   1       1.593 -14.761  -8.190  1.00  0.00    -0.051 Br
ATOM      7 C33  MOL A   1       4.254 -15.241  -9.180  1.00  0.00    -0.043 A 
ENDROOT
BRANCH   1   8
ATOM      8  C6  MOL A   1       6.542 -15.485 -10.261  1.00  0.00     0.063 C 
BRANCH   8   9
ATOM      9  C5  MOL A   1       5.833 -15.623 -11.620  1.00  0.00     0.051 C 
BRANCH   9  12
ATOM     10  C1  MOL A   1       3.184 -13.127 -13.009  1.00  0.00     0.006 C 
ATOM     11  N2  MOL A   1       3.861 -14.354 -12.615  1.00  0.00    -0.359 N 
ATOM     12  C3  MOL A   1       5.165 -14.340 -12.026  1.00  0.00     0.222 C 
ATOM     13  O4  MOL A   1       5.764 -13.246 -11.839  1.00  0.00    -0.275 OA
ENDBRANCH   9  12
ENDBRANCH   8   9
BRANCH   8  14
ATOM     14  N7  MOL A   1       7.681 -16.406 -10.177  1.00  0.00    -0.346 N 
ATOM     15  C8  MOL A   1       7.799 -17.561 -11.011  1.00  0.00     0.258 C 
ATOM     16  O9  MOL A   1       6.902 -17.831 -11.853  1.00  0.00    -0.271 OA
BRANCH  15  17
ATOM     17 C10  MOL A   1       8.997 -18.455 -10.902  1.00  0.00     0.167 C 
BRANCH  17  18
ATOM     18 O11  MOL A   1       9.391 -18.599  -9.540  1.00  0.00    -0.480 OA
BRANCH  18  19
ATOM     19 C12  MOL A   1      10.079 -19.725  -9.081  1.00  0.00     0.166 A 
ATOM     20 C13  MOL A   1       9.469 -21.001  -9.070  1.00  0.00     0.012 A 
ATOM     21 C21  MOL A   1      10.224 -22.118  -8.676  1.00  0.00    -0.054 A 
ATOM     22 C22  MOL A   1      11.546 -21.967  -8.255  1.00  0.00    -0.058 A 
ATOM     23 C23  MOL A   1      12.130 -20.700  -8.219  1.00  0.00    -0.016 A 
ATOM     24 C24  MOL A   1      11.399 -19.569  -8.628  1.00  0.00     0.161 A 
BRANCH  20  25
ATOM     25 C14  MOL A   1       8.023 -21.196  -9.468  1.00  0.00     0.028 C 
BRANCH  25  26
ATOM     26 N15  MOL A   1       7.124 -20.728  -8.393  1.00  0.00    -0.287 NA
ATOM     27 C16  MOL A   1       6.094 -21.731  -8.074  1.00  0.00     0.064 C 
ATOM     28 C17  MOL A   1       4.971 -20.845  -8.577  1.00  0.00     0.272 C 
ATOM     29 F18  MOL A   1       4.111 -20.418  -7.580  1.00  0.00    -0.204 F 
ATOM     30 F19  MOL A   1       4.328 -21.342  -9.698  1.00  0.00    -0.204 F 
ATOM     31 C20  MOL A   1       6.062 -19.844  -8.903  1.00  0.00     0.064 C 
ENDBRANCH  25  26
ENDBRANCH  20  25
BRANCH  24  32
ATOM     32 O25  MOL A   1      11.949 -18.279  -8.607  1.00  0.00    -0.493 OA
ATOM     33 C26  MOL A   1      11.957 -17.425  -7.468  1.00  0.00     0.078 C 
ENDBRANCH  24  32
ENDBRANCH  18  19
ENDBRANCH  17  18
ENDBRANCH  15  17
ENDBRANCH   8  14
ENDBRANCH   1   8
TORSDOF 10
ENDMDL
MODEL 432
REMARK VINA RESULT:    -6.971      8.316     12.501
REMARK INTER + INTRA:         -12.094
REMARK INTER:                 -10.202
REMARK INTRA:                  -1.892
REMARK UNBOUND:                -1.048
REMARK  10 active torsions:
REMARK  status: ('A' for Active; 'I' for Inactive)
REMARK   1   A    between atoms:  C27_1   and   C6_8  
REMARK   2   A    between atoms:  C6_8    and   C5_9  
REMARK   3   A    between atoms:  C5_9    and   C3_12 
REMARK   4   A    between atoms:  C6_8    and   N7_14 
REMARK   5   A    between atoms:  C8_15   and  C10_17 
REMARK   6   A    between atoms: C10_17   and  O11_18 
REMARK   7   A    between atoms: O11_18   and  C12_19 
REMARK   8   A    between atoms: C13_20   and  C14_25 
REMARK   9   A    between atoms: C14_25   and  N15_26 
REMARK   10  A    between atoms: C24_24   and  O25_32 
ROOT
ATOM      1 C27  MOL A   1      14.964 -15.652  -2.590  1.00  0.00    -0.024 A 
ATOM      2 C28  MOL A   1      14.944 -14.300  -2.201  1.00  0.00    -0.057 A 
ATOM      3 C29  MOL A   1      14.627 -13.946  -0.885  1.00  0.00    -0.061 A 
ATOM      4 C30  MOL A   1      14.326 -14.937   0.054  1.00  0.00    -0.048 A 
ATOM      5 C31  MOL A   1      14.346 -16.285  -0.319  1.00  0.00     0.018 A 
ATOM      6 Br32 MOL A   1      13.956 -17.642   0.973  1.00  0.00    -0.051 Br
ATOM      7 C33  MOL A   1      14.658 -16.642  -1.635  1.00  0.00    -0.043 A 
ENDROOT
BRANCH   1   8
ATOM      8  C6  MOL A   1      15.237 -16.022  -4.032  1.00  0.00     0.063 C 
BRANCH   8   9
ATOM      9  C5  MOL A   1      14.122 -15.470  -4.938  1.00  0.00     0.051 C 
BRANCH   9  12
ATOM     10  C1  MOL A   1      16.598 -14.757  -7.860  1.00  0.00     0.006 C 
ATOM     11  N2  MOL A   1      16.042 -15.201  -6.589  1.00  0.00    -0.359 N 
ATOM     12  C3  MOL A   1      14.667 -14.991  -6.252  1.00  0.00     0.222 C 
ATOM     13  O4  MOL A   1      13.900 -14.403  -7.063  1.00  0.00    -0.275 OA
ENDBRANCH   9  12
ENDBRANCH   8   9
BRANCH   8  14
ATOM     14  N7  MOL A   1      15.343 -17.478  -4.172  1.00  0.00    -0.346 N 
ATOM     15  C8  MOL A   1      16.580 -18.135  -4.454  1.00  0.00     0.258 C 
ATOM     16  O9  MOL A   1      17.636 -17.465  -4.603  1.00  0.00    -0.271 OA
BRANCH  15  17
ATOM     17 C10  MOL A   1      16.638 -19.630  -4.561  1.00  0.00     0.167 C 
BRANCH  17  18
ATOM     18 O11  MOL A   1      16.029 -20.067  -5.774  1.00  0.00    -0.480 OA
BRANCH  18  19
ATOM     19 C12  MOL A   1      16.306 -19.461  -7.002  1.00  0.00     0.166 A 
ATOM     20 C13  MOL A   1      15.310 -18.747  -7.707  1.00  0.00     0.012 A 
ATOM     21 C21  MOL A   1      15.653 -18.088  -8.899  1.00  0.00    -0.054 A 
ATOM     22 C22  MOL A   1      16.949 -18.175  -9.409  1.00  0.00    -0.058 A 
ATOM     23 C23  MOL A   1      17.917 -18.922  -8.738  1.00  0.00    -0.016 A 
ATOM     24 C24  MOL A   1      17.602 -19.575  -7.532  1.00  0.00     0.161 A 
BRANCH  20  25
ATOM     25 C14  MOL A   1      13.882 -18.675  -7.213  1.00  0.00     0.028 C 
BRANCH  25  26
ATOM     26 N15  MOL A   1      13.040 -17.936  -8.176  1.00  0.00    -0.287 NA
ATOM     27 C16  MOL A   1      11.943 -17.223  -7.500  1.00  0.00     0.064 C 
ATOM     28 C17  MOL A   1      10.882 -18.087  -8.153  1.00  0.00     0.272 C 
ATOM     29 F18  MOL A   1      10.074 -17.399  -9.041  1.00  0.00    -0.204 F 
ATOM     30 F19  MOL A   1      10.183 -18.881  -7.259  1.00  0.00    -0.204 F 
ATOM     31 C20  MOL A   1      12.039 -18.805  -8.819  1.00  0.00     0.064 C 
ENDBRANCH  25  26
ENDBRANCH  20  25
BRANCH  24  32
ATOM     32 O25  MOL A   1      18.546 -20.336  -6.828  1.00  0.00    -0.493 OA
ATOM     33 C26  MOL A   1      19.304 -21.402  -7.391  1.00  0.00     0.078 C 
ENDBRANCH  24  32
ENDBRANCH  18  19
ENDBRANCH  17  18
ENDBRANCH  15  17
ENDBRANCH   8  14
ENDBRANCH   1   8
TORSDOF 10
ENDMDL
MODEL 433
REMARK VINA RESULT:    -6.970     11.852     13.476
REMARK INTER + INTRA:         -12.094
REMARK INTER:                  -9.796
REMARK INTRA:                  -2.297
REMARK UNBOUND:                -1.048
REMARK  10 active torsions:
REMARK  status: ('A' for Active; 'I' for Inactive)
REMARK   1   A    between atoms:  C27_1   and   C6_8  
REMARK   2   A    between atoms:  C6_8    and   C5_9  
REMARK   3   A    between atoms:  C5_9    and   C3_12 
REMARK   4   A    between atoms:  C6_8    and   N7_14 
REMARK   5   A    between atoms:  C8_15   and  C10_17 
REMARK   6   A    between atoms: C10_17   and  O11_18 
REMARK   7   A    between atoms: O11_18   and  C12_19 
REMARK   8   A    between atoms: C13_20   and  C14_25 
REMARK   9   A    between atoms: C14_25   and  N15_26 
REMARK   10  A    between atoms: C24_24   and  O25_32 
ROOT
ATOM      1 C27  MOL A   1      16.748 -17.769  -6.323  1.00  0.00    -0.024 A 
ATOM      2 C28  MOL A   1      17.960 -17.170  -5.933  1.00  0.00    -0.057 A 
ATOM      3 C29  MOL A   1      18.140 -15.789  -6.062  1.00  0.00    -0.061 A 
ATOM      4 C30  MOL A   1      17.115 -14.993  -6.580  1.00  0.00    -0.048 A 
ATOM      5 C31  MOL A   1      15.904 -15.575  -6.969  1.00  0.00     0.018 A 
ATOM      6 Br32 MOL A   1      14.493 -14.482  -7.658  1.00  0.00    -0.051 Br
ATOM      7 C33  MOL A   1      15.721 -16.956  -6.847  1.00  0.00    -0.043 A 
ENDROOT
BRANCH   1   8
ATOM      8  C6  MOL A   1      16.587 -19.272  -6.249  1.00  0.00     0.063 C 
BRANCH   8   9
ATOM      9  C5  MOL A   1      16.176 -19.827  -7.624  1.00  0.00     0.051 C 
BRANCH   9  12
ATOM     10  C1  MOL A   1      19.630 -20.084  -9.407  1.00  0.00     0.006 C 
ATOM     11  N2  MOL A   1      18.555 -20.234  -8.436  1.00  0.00    -0.359 N 
ATOM     12  C3  MOL A   1      17.266 -19.645  -8.640  1.00  0.00     0.222 C 
ATOM     13  O4  MOL A   1      17.037 -18.969  -9.680  1.00  0.00    -0.275 OA
ENDBRANCH   9  12
ENDBRANCH   8   9
BRANCH   8  14
ATOM     14  N7  MOL A   1      15.592 -19.627  -5.230  1.00  0.00    -0.346 N 
ATOM     15  C8  MOL A   1      15.909 -19.698  -3.839  1.00  0.00     0.258 C 
ATOM     16  O9  MOL A   1      17.080 -19.462  -3.440  1.00  0.00    -0.271 OA
BRANCH  15  17
ATOM     17 C10  MOL A   1      14.847 -20.040  -2.836  1.00  0.00     0.167 C 
BRANCH  17  18
ATOM     18 O11  MOL A   1      15.362 -19.940  -1.511  1.00  0.00    -0.480 OA
BRANCH  18  19
ATOM     19 C12  MOL A   1      14.604 -19.418  -0.459  1.00  0.00     0.166 A 
ATOM     20 C13  MOL A   1      14.575 -18.029  -0.198  1.00  0.00     0.012 A 
ATOM     21 C21  MOL A   1      13.738 -17.540   0.819  1.00  0.00    -0.054 A 
ATOM     22 C22  MOL A   1      12.980 -18.417   1.595  1.00  0.00    -0.058 A 
ATOM     23 C23  MOL A   1      13.049 -19.792   1.369  1.00  0.00    -0.016 A 
ATOM     24 C24  MOL A   1      13.865 -20.303   0.342  1.00  0.00     0.161 A 
BRANCH  20  25
ATOM     25 C14  MOL A   1      15.423 -17.053  -0.983  1.00  0.00     0.028 C 
BRANCH  25  26
ATOM     26 N15  MOL A   1      14.573 -16.219  -1.858  1.00  0.00    -0.287 NA
ATOM     27 C16  MOL A   1      15.020 -16.275  -3.260  1.00  0.00     0.064 C 
ATOM     28 C17  MOL A   1      15.422 -14.814  -3.268  1.00  0.00     0.272 C 
ATOM     29 F18  MOL A   1      14.644 -14.028  -4.101  1.00  0.00    -0.204 F 
ATOM     30 F19  MOL A   1      16.784 -14.611  -3.415  1.00  0.00    -0.204 F 
ATOM     31 C20  MOL A   1      14.964 -14.799  -1.822  1.00  0.00     0.064 C 
ENDBRANCH  25  26
ENDBRANCH  20  25
BRANCH  24  32
ATOM     32 O25  MOL A   1      13.963 -21.678   0.083  1.00  0.00    -0.493 OA
ATOM     33 C26  MOL A   1      14.823 -22.571   0.783  1.00  0.00     0.078 C 
ENDBRANCH  24  32
ENDBRANCH  18  19
ENDBRANCH  17  18
ENDBRANCH  15  17
ENDBRANCH   8  14
ENDBRANCH   1   8
TORSDOF 10
ENDMDL
MODEL 434
REMARK VINA RESULT:    -6.966      4.510      9.377
REMARK INTER + INTRA:         -12.087
REMARK INTER:                 -11.546
REMARK INTRA:                  -0.540
REMARK UNBOUND:                -1.048
REMARK  10 active torsions:
REMARK  status: ('A' for Active; 'I' for Inactive)
REMARK   1   A    between atoms:  C27_1   and   C6_8  
REMARK   2   A    between atoms:  C6_8    and   C5_9  
REMARK   3   A    between atoms:  C5_9    and   C3_12 
REMARK   4   A    between atoms:  C6_8    and   N7_14 
REMARK   5   A    between atoms:  C8_15   and  C10_17 
REMARK   6   A    between atoms: C10_17   and  O11_18 
REMARK   7   A    between atoms: O11_18   and  C12_19 
REMARK   8   A    between atoms: C13_20   and  C14_25 
REMARK   9   A    between atoms: C14_25   and  N15_26 
REMARK   10  A    between atoms: C24_24   and  O25_32 
ROOT
ATOM      1 C27  MOL A   1       7.793 -19.836  -9.767  1.00  0.00    -0.024 A 
ATOM      2 C28  MOL A   1       6.444 -20.230  -9.824  1.00  0.00    -0.057 A 
ATOM      3 C29  MOL A   1       6.107 -21.562 -10.092  1.00  0.00    -0.061 A 
ATOM      4 C30  MOL A   1       7.112 -22.510 -10.304  1.00  0.00    -0.048 A 
ATOM      5 C31  MOL A   1       8.458 -22.132 -10.246  1.00  0.00     0.018 A 
ATOM      6 Br32 MOL A   1       9.832 -23.435 -10.515  1.00  0.00    -0.051 Br
ATOM      7 C33  MOL A   1       8.798 -20.801  -9.985  1.00  0.00    -0.043 A 
ENDROOT
BRANCH   1   8
ATOM      8  C6  MOL A   1       8.148 -18.381  -9.549  1.00  0.00     0.063 C 
BRANCH   8   9
ATOM      9  C5  MOL A   1       7.881 -17.575 -10.834  1.00  0.00     0.051 C 
BRANCH   9  12
ATOM     10  C1  MOL A   1       5.225 -14.825 -11.578  1.00  0.00     0.006 C 
ATOM     11  N2  MOL A   1       6.292 -15.802 -11.739  1.00  0.00    -0.359 N 
ATOM     12  C3  MOL A   1       6.787 -16.567 -10.634  1.00  0.00     0.222 C 
ATOM     13  O4  MOL A   1       6.303 -16.399  -9.481  1.00  0.00    -0.275 OA
ENDBRANCH   9  12
ENDBRANCH   8   9
BRANCH   8  14
ATOM     14  N7  MOL A   1       9.552 -18.255  -9.143  1.00  0.00    -0.346 N 
ATOM     15  C8  MOL A   1      10.003 -17.246  -8.238  1.00  0.00     0.258 C 
ATOM     16  O9  MOL A   1       9.189 -16.411  -7.760  1.00  0.00    -0.271 OA
BRANCH  15  17
ATOM     17 C10  MOL A   1      11.446 -17.178  -7.835  1.00  0.00     0.167 C 
BRANCH  17  18
ATOM     18 O11  MOL A   1      11.961 -18.487  -7.605  1.00  0.00    -0.480 OA
BRANCH  18  19
ATOM     19 C12  MOL A   1      13.241 -18.863  -8.021  1.00  0.00     0.166 A 
ATOM     20 C13  MOL A   1      14.233 -17.896  -8.303  1.00  0.00     0.012 A 
ATOM     21 C21  MOL A   1      15.528 -18.320  -8.642  1.00  0.00    -0.054 A 
ATOM     22 C22  MOL A   1      15.823 -19.680  -8.746  1.00  0.00    -0.058 A 
ATOM     23 C23  MOL A   1      14.830 -20.632  -8.516  1.00  0.00    -0.016 A 
ATOM     24 C24  MOL A   1      13.530 -20.231  -8.156  1.00  0.00     0.161 A 
BRANCH  20  25
ATOM     25 C14  MOL A   1      13.936 -16.413  -8.253  1.00  0.00     0.028 C 
BRANCH  25  26
ATOM     26 N15  MOL A   1      14.726 -15.765  -7.185  1.00  0.00    -0.287 NA
ATOM     27 C16  MOL A   1      14.383 -16.301  -5.857  1.00  0.00     0.064 C 
ATOM     28 C17  MOL A   1      13.796 -14.982  -5.395  1.00  0.00     0.272 C 
ATOM     29 F18  MOL A   1      14.518 -14.377  -4.381  1.00  0.00    -0.204 F 
ATOM     30 F19  MOL A   1      12.432 -15.030  -5.162  1.00  0.00    -0.204 F 
ATOM     31 C20  MOL A   1      14.152 -14.471  -6.778  1.00  0.00     0.064 C 
ENDBRANCH  25  26
ENDBRANCH  20  25
BRANCH  24  32
ATOM     32 O25  MOL A   1      12.504 -21.157  -7.918  1.00  0.00    -0.493 OA
ATOM     33 C26  MOL A   1      12.387 -21.943  -6.737  1.00  0.00     0.078 C 
ENDBRANCH  24  32
ENDBRANCH  18  19
ENDBRANCH  17  18
ENDBRANCH  15  17
ENDBRANCH   8  14
ENDBRANCH   1   8
TORSDOF 10
ENDMDL
MODEL 435
REMARK VINA RESULT:    -6.964      5.492      8.829
REMARK INTER + INTRA:         -12.083
REMARK INTER:                 -11.056
REMARK INTRA:                  -1.027
REMARK UNBOUND:                -1.048
REMARK  10 active torsions:
REMARK  status: ('A' for Active; 'I' for Inactive)
REMARK   1   A    between atoms:  C27_1   and   C6_8  
REMARK   2   A    between atoms:  C6_8    and   C5_9  
REMARK   3   A    between atoms:  C5_9    and   C3_12 
REMARK   4   A    between atoms:  C6_8    and   N7_14 
REMARK   5   A    between atoms:  C8_15   and  C10_17 
REMARK   6   A    between atoms: C10_17   and  O11_18 
REMARK   7   A    between atoms: O11_18   and  C12_19 
REMARK   8   A    between atoms: C13_20   and  C14_25 
REMARK   9   A    between atoms: C14_25   and  N15_26 
REMARK   10  A    between atoms: C24_24   and  O25_32 
ROOT
ATOM      1 C27  MOL A   1      13.930 -16.291  -5.908  1.00  0.00    -0.024 A 
ATOM      2 C28  MOL A   1      13.366 -15.067  -5.507  1.00  0.00    -0.057 A 
ATOM      3 C29  MOL A   1      13.863 -14.392  -4.387  1.00  0.00    -0.061 A 
ATOM      4 C30  MOL A   1      14.926 -14.932  -3.657  1.00  0.00    -0.048 A 
ATOM      5 C31  MOL A   1      15.498 -16.148  -4.048  1.00  0.00     0.018 A 
ATOM      6 Br32 MOL A   1      16.968 -16.875  -3.061  1.00  0.00    -0.051 Br
ATOM      7 C33  MOL A   1      15.001 -16.828  -5.164  1.00  0.00    -0.043 A 
ENDROOT
BRANCH   1   8
ATOM      8  C6  MOL A   1      13.340 -17.050  -7.077  1.00  0.00     0.063 C 
BRANCH   8   9
ATOM      9  C5  MOL A   1      14.251 -16.911  -8.310  1.00  0.00     0.051 C 
BRANCH   9  12
ATOM     10  C1  MOL A   1      16.800 -19.609  -9.493  1.00  0.00     0.006 C 
ATOM     11  N2  MOL A   1      16.206 -18.339  -9.102  1.00  0.00    -0.359 N 
ATOM     12  C3  MOL A   1      14.831 -18.235  -8.719  1.00  0.00     0.222 C 
ATOM     13  O4  MOL A   1      14.095 -19.259  -8.719  1.00  0.00    -0.275 OA
ENDBRANCH   9  12
ENDBRANCH   8   9
BRANCH   8  14
ATOM     14  N7  MOL A   1      11.991 -16.557  -7.374  1.00  0.00    -0.346 N 
ATOM     15  C8  MOL A   1      10.868 -17.429  -7.518  1.00  0.00     0.258 C 
ATOM     16  O9  MOL A   1      11.012 -18.675  -7.401  1.00  0.00    -0.271 OA
BRANCH  15  17
ATOM     17 C10  MOL A   1       9.504 -16.870  -7.795  1.00  0.00     0.167 C 
BRANCH  17  18
ATOM     18 O11  MOL A   1       8.687 -17.846  -8.437  1.00  0.00    -0.480 OA
BRANCH  18  19
ATOM     19 C12  MOL A   1       8.149 -17.640  -9.711  1.00  0.00     0.166 A 
ATOM     20 C13  MOL A   1       8.698 -18.277 -10.848  1.00  0.00     0.012 A 
ATOM     21 C21  MOL A   1       8.078 -18.104 -12.096  1.00  0.00    -0.054 A 
ATOM     22 C22  MOL A   1       6.963 -17.277 -12.224  1.00  0.00    -0.058 A 
ATOM     23 C23  MOL A   1       6.453 -16.609 -11.110  1.00  0.00    -0.016 A 
ATOM     24 C24  MOL A   1       7.045 -16.782  -9.846  1.00  0.00     0.161 A 
BRANCH  20  25
ATOM     25 C14  MOL A   1       9.938 -19.139 -10.757  1.00  0.00     0.028 C 
BRANCH  25  26
ATOM     26 N15  MOL A   1       9.572 -20.570 -10.754  1.00  0.00    -0.287 NA
ATOM     27 C16  MOL A   1       8.144 -20.764 -10.447  1.00  0.00     0.064 C 
ATOM     28 C17  MOL A   1       8.446 -21.456  -9.132  1.00  0.00     0.272 C 
ATOM     29 F18  MOL A   1       8.087 -22.793  -9.113  1.00  0.00    -0.204 F 
ATOM     30 F19  MOL A   1       8.026 -20.746  -8.019  1.00  0.00    -0.204 F 
ATOM     31 C20  MOL A   1       9.904 -21.227  -9.478  1.00  0.00     0.064 C 
ENDBRANCH  25  26
ENDBRANCH  20  25
BRANCH  24  32
ATOM     32 O25  MOL A   1       6.565 -16.129  -8.702  1.00  0.00    -0.493 OA
ATOM     33 C26  MOL A   1       5.186 -15.935  -8.405  1.00  0.00     0.078 C 
ENDBRANCH  24  32
ENDBRANCH  18  19
ENDBRANCH  17  18
ENDBRANCH  15  17
ENDBRANCH   8  14
ENDBRANCH   1   8
TORSDOF 10
ENDMDL
MODEL 436
REMARK VINA RESULT:    -6.963      6.338     11.071
REMARK INTER + INTRA:         -12.082
REMARK INTER:                 -10.132
REMARK INTRA:                  -1.951
REMARK UNBOUND:                -1.048
REMARK  10 active torsions:
REMARK  status: ('A' for Active; 'I' for Inactive)
REMARK   1   A    between atoms:  C27_1   and   C6_8  
REMARK   2   A    between atoms:  C6_8    and   C5_9  
REMARK   3   A    between atoms:  C5_9    and   C3_12 
REMARK   4   A    between atoms:  C6_8    and   N7_14 
REMARK   5   A    between atoms:  C8_15   and  C10_17 
REMARK   6   A    between atoms: C10_17   and  O11_18 
REMARK   7   A    between atoms: O11_18   and  C12_19 
REMARK   8   A    between atoms: C13_20   and  C14_25 
REMARK   9   A    between atoms: C14_25   and  N15_26 
REMARK   10  A    between atoms: C24_24   and  O25_32 
ROOT
ATOM      1 C27  MOL A   1      10.972 -20.189  -8.069  1.00  0.00    -0.024 A 
ATOM      2 C28  MOL A   1      10.229 -21.071  -8.875  1.00  0.00    -0.057 A 
ATOM      3 C29  MOL A   1      10.605 -22.414  -8.986  1.00  0.00    -0.061 A 
ATOM      4 C30  MOL A   1      11.723 -22.889  -8.295  1.00  0.00    -0.048 A 
ATOM      5 C31  MOL A   1      12.468 -22.023  -7.487  1.00  0.00     0.018 A 
ATOM      6 Br32 MOL A   1      13.986 -22.679  -6.524  1.00  0.00    -0.051 Br
ATOM      7 C33  MOL A   1      12.099 -20.678  -7.378  1.00  0.00    -0.043 A 
ENDROOT
BRANCH   1   8
ATOM      8  C6  MOL A   1      10.603 -18.722  -8.012  1.00  0.00     0.063 C 
BRANCH   8   9
ATOM      9  C5  MOL A   1       9.899 -18.304  -9.316  1.00  0.00     0.051 C 
BRANCH   9  12
ATOM     10  C1  MOL A   1       6.157 -17.987  -8.282  1.00  0.00     0.006 C 
ATOM     11  N2  MOL A   1       7.477 -18.533  -8.563  1.00  0.00    -0.359 N 
ATOM     12  C3  MOL A   1       8.546 -17.713  -9.046  1.00  0.00     0.222 C 
ATOM     13  O4  MOL A   1       8.357 -16.482  -9.246  1.00  0.00    -0.275 OA
ENDBRANCH   9  12
ENDBRANCH   8   9
BRANCH   8  14
ATOM     14  N7  MOL A   1      11.800 -17.905  -7.787  1.00  0.00    -0.346 N 
ATOM     15  C8  MOL A   1      11.765 -16.672  -7.065  1.00  0.00     0.258 C 
ATOM     16  O9  MOL A   1      10.677 -16.238  -6.601  1.00  0.00    -0.271 OA
BRANCH  15  17
ATOM     17 C10  MOL A   1      13.023 -15.888  -6.841  1.00  0.00     0.167 C 
BRANCH  17  18
ATOM     18 O11  MOL A   1      13.988 -16.680  -6.151  1.00  0.00    -0.480 OA
BRANCH  18  19
ATOM     19 C12  MOL A   1      15.261 -16.195  -5.843  1.00  0.00     0.166 A 
ATOM     20 C13  MOL A   1      16.297 -16.196  -6.805  1.00  0.00     0.012 A 
ATOM     21 C21  MOL A   1      17.539 -15.626  -6.476  1.00  0.00    -0.054 A 
ATOM     22 C22  MOL A   1      17.764 -15.108  -5.201  1.00  0.00    -0.058 A 
ATOM     23 C23  MOL A   1      16.757 -15.154  -4.237  1.00  0.00    -0.016 A 
ATOM     24 C24  MOL A   1      15.499 -15.702  -4.549  1.00  0.00     0.161 A 
BRANCH  20  25
ATOM     25 C14  MOL A   1      16.106 -16.797  -8.180  1.00  0.00     0.028 C 
BRANCH  25  26
ATOM     26 N15  MOL A   1      16.859 -18.062  -8.300  1.00  0.00    -0.287 NA
ATOM     27 C16  MOL A   1      16.641 -18.701  -9.609  1.00  0.00     0.064 C 
ATOM     28 C17  MOL A   1      15.923 -19.885  -8.993  1.00  0.00     0.272 C 
ATOM     29 F18  MOL A   1      16.611 -21.079  -9.118  1.00  0.00    -0.204 F 
ATOM     30 F19  MOL A   1      14.585 -19.969  -9.343  1.00  0.00    -0.204 F 
ATOM     31 C20  MOL A   1      16.155 -19.190  -7.666  1.00  0.00     0.064 C 
ENDBRANCH  25  26
ENDBRANCH  20  25
BRANCH  24  32
ATOM     32 O25  MOL A   1      14.460 -15.767  -3.609  1.00  0.00    -0.493 OA
ATOM     33 C26  MOL A   1      14.638 -16.088  -2.234  1.00  0.00     0.078 C 
ENDBRANCH  24  32
ENDBRANCH  18  19
ENDBRANCH  17  18
ENDBRANCH  15  17
ENDBRANCH   8  14
ENDBRANCH   1   8
TORSDOF 10
ENDMDL
MODEL 437
REMARK VINA RESULT:    -6.962      8.247     11.521
REMARK INTER + INTRA:         -12.081
REMARK INTER:                  -9.994
REMARK INTRA:                  -2.087
REMARK UNBOUND:                -1.048
REMARK  10 active torsions:
REMARK  status: ('A' for Active; 'I' for Inactive)
REMARK   1   A    between atoms:  C27_1   and   C6_8  
REMARK   2   A    between atoms:  C6_8    and   C5_9  
REMARK   3   A    between atoms:  C5_9    and   C3_12 
REMARK   4   A    between atoms:  C6_8    and   N7_14 
REMARK   5   A    between atoms:  C8_15   and  C10_17 
REMARK   6   A    between atoms: C10_17   and  O11_18 
REMARK   7   A    between atoms: O11_18   and  C12_19 
REMARK   8   A    between atoms: C13_20   and  C14_25 
REMARK   9   A    between atoms: C14_25   and  N15_26 
REMARK   10  A    between atoms: C24_24   and  O25_32 
ROOT
ATOM      1 C27  MOL A   1      16.244 -19.085  -3.518  1.00  0.00    -0.024 A 
ATOM      2 C28  MOL A   1      16.099 -17.697  -3.338  1.00  0.00    -0.057 A 
ATOM      3 C29  MOL A   1      15.487 -17.193  -2.185  1.00  0.00    -0.061 A 
ATOM      4 C30  MOL A   1      15.014 -18.068  -1.203  1.00  0.00    -0.048 A 
ATOM      5 C31  MOL A   1      15.155 -19.450  -1.368  1.00  0.00     0.018 A 
ATOM      6 Br32 MOL A   1      14.528 -20.645  -0.012  1.00  0.00    -0.051 Br
ATOM      7 C33  MOL A   1      15.762 -19.958  -2.521  1.00  0.00    -0.043 A 
ENDROOT
BRANCH   1   8
ATOM      8  C6  MOL A   1      16.842 -19.624  -4.799  1.00  0.00     0.063 C 
BRANCH   8   9
ATOM      9  C5  MOL A   1      18.045 -18.763  -5.224  1.00  0.00     0.051 C 
BRANCH   9  12
ATOM     10  C1  MOL A   1      19.651 -20.952  -8.016  1.00  0.00     0.006 C 
ATOM     11  N2  MOL A   1      19.129 -20.504  -6.733  1.00  0.00    -0.359 N 
ATOM     12  C3  MOL A   1      18.586 -19.191  -6.557  1.00  0.00     0.222 C 
ATOM     13  O4  MOL A   1      18.556 -18.384  -7.526  1.00  0.00    -0.275 OA
ENDBRANCH   9  12
ENDBRANCH   8   9
BRANCH   8  14
ATOM     14  N7  MOL A   1      15.828 -19.654  -5.859  1.00  0.00    -0.346 N 
ATOM     15  C8  MOL A   1      15.317 -20.873  -6.401  1.00  0.00     0.258 C 
ATOM     16  O9  MOL A   1      15.741 -21.982  -5.980  1.00  0.00    -0.271 OA
BRANCH  15  17
ATOM     17 C10  MOL A   1      14.262 -20.847  -7.466  1.00  0.00     0.167 C 
BRANCH  17  18
ATOM     18 O11  MOL A   1      13.031 -20.360  -6.937  1.00  0.00    -0.480 OA
BRANCH  18  19
ATOM     19 C12  MOL A   1      12.112 -19.660  -7.723  1.00  0.00     0.166 A 
ATOM     20 C13  MOL A   1      12.249 -18.270  -7.945  1.00  0.00     0.012 A 
ATOM     21 C21  MOL A   1      11.347 -17.622  -8.806  1.00  0.00    -0.054 A 
ATOM     22 C22  MOL A   1      10.300 -18.329  -9.397  1.00  0.00    -0.058 A 
ATOM     23 C23  MOL A   1      10.137 -19.689  -9.135  1.00  0.00    -0.016 A 
ATOM     24 C24  MOL A   1      11.039 -20.364  -8.293  1.00  0.00     0.161 A 
BRANCH  20  25
ATOM     25 C14  MOL A   1      13.340 -17.460  -7.280  1.00  0.00     0.028 C 
BRANCH  25  26
ATOM     26 N15  MOL A   1      14.077 -16.666  -8.284  1.00  0.00    -0.287 NA
ATOM     27 C16  MOL A   1      15.473 -17.117  -8.413  1.00  0.00     0.064 C 
ATOM     28 C17  MOL A   1      16.021 -15.816  -7.861  1.00  0.00     0.272 C 
ATOM     29 F18  MOL A   1      16.732 -15.074  -8.789  1.00  0.00    -0.204 F 
ATOM     30 F19  MOL A   1      16.665 -15.954  -6.642  1.00  0.00    -0.204 F 
ATOM     31 C20  MOL A   1      14.571 -15.393  -7.732  1.00  0.00     0.064 C 
ENDBRANCH  25  26
ENDBRANCH  20  25
BRANCH  24  32
ATOM     32 O25  MOL A   1      10.910 -21.731  -8.004  1.00  0.00    -0.493 OA
ATOM     33 C26  MOL A   1      11.211 -22.779  -8.918  1.00  0.00     0.078 C 
ENDBRANCH  24  32
ENDBRANCH  18  19
ENDBRANCH  17  18
ENDBRANCH  15  17
ENDBRANCH   8  14
ENDBRANCH   1   8
TORSDOF 10
ENDMDL
MODEL 438
REMARK VINA RESULT:    -6.962      7.988     11.976
REMARK INTER + INTRA:         -12.080
REMARK INTER:                 -10.550
REMARK INTRA:                  -1.530
REMARK UNBOUND:                -1.048
REMARK  10 active torsions:
REMARK  status: ('A' for Active; 'I' for Inactive)
REMARK   1   A    between atoms:  C27_1   and   C6_8  
REMARK   2   A    between atoms:  C6_8    and   C5_9  
REMARK   3   A    between atoms:  C5_9    and   C3_12 
REMARK   4   A    between atoms:  C6_8    and   N7_14 
REMARK   5   A    between atoms:  C8_15   and  C10_17 
REMARK   6   A    between atoms: C10_17   and  O11_18 
REMARK   7   A    between atoms: O11_18   and  C12_19 
REMARK   8   A    between atoms: C13_20   and  C14_25 
REMARK   9   A    between atoms: C14_25   and  N15_26 
REMARK   10  A    between atoms: C24_24   and  O25_32 
ROOT
ATOM      1 C27  MOL A   1      10.608 -18.696  -8.021  1.00  0.00    -0.024 A 
ATOM      2 C28  MOL A   1      10.219 -17.374  -8.300  1.00  0.00    -0.057 A 
ATOM      3 C29  MOL A   1       8.885 -17.077  -8.599  1.00  0.00    -0.061 A 
ATOM      4 C30  MOL A   1       7.928 -18.095  -8.622  1.00  0.00    -0.048 A 
ATOM      5 C31  MOL A   1       8.301 -19.414  -8.343  1.00  0.00     0.018 A 
ATOM      6 Br32 MOL A   1       6.986 -20.804  -8.353  1.00  0.00    -0.051 Br
ATOM      7 C33  MOL A   1       9.635 -19.716  -8.049  1.00  0.00    -0.043 A 
ENDROOT
BRANCH   1   8
ATOM      8  C6  MOL A   1      12.065 -19.020  -7.770  1.00  0.00     0.063 C 
BRANCH   8   9
ATOM      9  C5  MOL A   1      12.182 -20.271  -6.880  1.00  0.00     0.051 C 
BRANCH   9  12
ATOM     10  C1  MOL A   1      12.995 -23.785  -8.350  1.00  0.00     0.006 C 
ATOM     11  N2  MOL A   1      12.324 -22.689  -7.666  1.00  0.00    -0.359 N 
ATOM     12  C3  MOL A   1      12.903 -21.383  -7.584  1.00  0.00     0.222 C 
ATOM     13  O4  MOL A   1      14.028 -21.156  -8.109  1.00  0.00    -0.275 OA
ENDBRANCH   9  12
ENDBRANCH   8   9
BRANCH   8  14
ATOM     14  N7  MOL A   1      12.740 -17.877  -7.145  1.00  0.00    -0.346 N 
ATOM     15  C8  MOL A   1      13.958 -17.331  -7.655  1.00  0.00     0.258 C 
ATOM     16  O9  MOL A   1      14.503 -17.834  -8.673  1.00  0.00    -0.271 OA
BRANCH  15  17
ATOM     17 C10  MOL A   1      14.592 -16.144  -6.994  1.00  0.00     0.167 C 
BRANCH  17  18
ATOM     18 O11  MOL A   1      15.764 -16.537  -6.283  1.00  0.00    -0.480 OA
BRANCH  18  19
ATOM     19 C12  MOL A   1      15.701 -17.153  -5.031  1.00  0.00     0.166 A 
ATOM     20 C13  MOL A   1      15.979 -18.531  -4.879  1.00  0.00     0.012 A 
ATOM     21 C21  MOL A   1      15.980 -19.091  -3.590  1.00  0.00    -0.054 A 
ATOM     22 C22  MOL A   1      15.665 -18.311  -2.478  1.00  0.00    -0.058 A 
ATOM     23 C23  MOL A   1      15.342 -16.963  -2.636  1.00  0.00    -0.016 A 
ATOM     24 C24  MOL A   1      15.353 -16.375  -3.914  1.00  0.00     0.161 A 
BRANCH  20  25
ATOM     25 C14  MOL A   1      16.273 -19.420  -6.066  1.00  0.00     0.028 C 
BRANCH  25  26
ATOM     26 N15  MOL A   1      17.449 -18.919  -6.807  1.00  0.00    -0.287 NA
ATOM     27 C16  MOL A   1      17.818 -19.820  -7.911  1.00  0.00     0.064 C 
ATOM     28 C17  MOL A   1      19.137 -20.193  -7.263  1.00  0.00     0.272 C 
ATOM     29 F18  MOL A   1      20.245 -19.745  -7.961  1.00  0.00    -0.204 F 
ATOM     30 F19  MOL A   1      19.214 -21.522  -6.880  1.00  0.00    -0.204 F 
ATOM     31 C20  MOL A   1      18.715 -19.266  -6.140  1.00  0.00     0.064 C 
ENDBRANCH  25  26
ENDBRANCH  20  25
BRANCH  24  32
ATOM     32 O25  MOL A   1      15.033 -15.024  -4.116  1.00  0.00    -0.493 OA
ATOM     33 C26  MOL A   1      13.744 -14.461  -3.901  1.00  0.00     0.078 C 
ENDBRANCH  24  32
ENDBRANCH  18  19
ENDBRANCH  17  18
ENDBRANCH  15  17
ENDBRANCH   8  14
ENDBRANCH   1   8
TORSDOF 10
ENDMDL
MODEL 439
REMARK VINA RESULT:    -6.961      5.905      9.633
REMARK INTER + INTRA:         -12.078
REMARK INTER:                 -11.180
REMARK INTRA:                  -0.899
REMARK UNBOUND:                -1.048
REMARK  10 active torsions:
REMARK  status: ('A' for Active; 'I' for Inactive)
REMARK   1   A    between atoms:  C27_1   and   C6_8  
REMARK   2   A    between atoms:  C6_8    and   C5_9  
REMARK   3   A    between atoms:  C5_9    and   C3_12 
REMARK   4   A    between atoms:  C6_8    and   N7_14 
REMARK   5   A    between atoms:  C8_15   and  C10_17 
REMARK   6   A    between atoms: C10_17   and  O11_18 
REMARK   7   A    between atoms: O11_18   and  C12_19 
REMARK   8   A    between atoms: C13_20   and  C14_25 
REMARK   9   A    between atoms: C14_25   and  N15_26 
REMARK   10  A    between atoms: C24_24   and  O25_32 
ROOT
ATOM      1 C27  MOL A   1      16.114 -17.172  -7.332  1.00  0.00    -0.024 A 
ATOM      2 C28  MOL A   1      16.320 -16.610  -8.605  1.00  0.00    -0.057 A 
ATOM      3 C29  MOL A   1      17.356 -17.074  -9.424  1.00  0.00    -0.061 A 
ATOM      4 C30  MOL A   1      18.194 -18.100  -8.981  1.00  0.00    -0.048 A 
ATOM      5 C31  MOL A   1      17.998 -18.670  -7.718  1.00  0.00     0.018 A 
ATOM      6 Br32 MOL A   1      19.133 -20.090  -7.121  1.00  0.00    -0.051 Br
ATOM      7 C33  MOL A   1      16.968 -18.205  -6.894  1.00  0.00    -0.043 A 
ENDROOT
BRANCH   1   8
ATOM      8  C6  MOL A   1      15.039 -16.616  -6.423  1.00  0.00     0.063 C 
BRANCH   8   9
ATOM      9  C5  MOL A   1      15.288 -17.068  -4.973  1.00  0.00     0.051 C 
BRANCH   9  12
ATOM     10  C1  MOL A   1      17.386 -15.158  -2.304  1.00  0.00     0.006 C 
ATOM     11  N2  MOL A   1      16.820 -16.219  -3.124  1.00  0.00    -0.359 N 
ATOM     12  C3  MOL A   1      15.844 -15.952  -4.136  1.00  0.00     0.222 C 
ATOM     13  O4  MOL A   1      15.445 -14.772  -4.335  1.00  0.00    -0.275 OA
ENDBRANCH   9  12
ENDBRANCH   8   9
BRANCH   8  14
ATOM     14  N7  MOL A   1      13.714 -17.050  -6.879  1.00  0.00    -0.346 N 
ATOM     15  C8  MOL A   1      12.537 -16.263  -6.683  1.00  0.00     0.258 C 
ATOM     16  O9  MOL A   1      12.606 -15.154  -6.090  1.00  0.00    -0.271 OA
BRANCH  15  17
ATOM     17 C10  MOL A   1      11.211 -16.742  -7.193  1.00  0.00     0.167 C 
BRANCH  17  18
ATOM     18 O11  MOL A   1      11.386 -17.560  -8.347  1.00  0.00    -0.480 OA
BRANCH  18  19
ATOM     19 C12  MOL A   1      10.903 -18.870  -8.408  1.00  0.00     0.166 A 
ATOM     20 C13  MOL A   1       9.535 -19.135  -8.648  1.00  0.00     0.012 A 
ATOM     21 C21  MOL A   1       9.108 -20.466  -8.780  1.00  0.00    -0.054 A 
ATOM     22 C22  MOL A   1      10.011 -21.518  -8.628  1.00  0.00    -0.058 A 
ATOM     23 C23  MOL A   1      11.351 -21.256  -8.341  1.00  0.00    -0.016 A 
ATOM     24 C24  MOL A   1      11.806 -19.930  -8.225  1.00  0.00     0.161 A 
BRANCH  20  25
ATOM     25 C14  MOL A   1       8.517 -18.022  -8.765  1.00  0.00     0.028 C 
BRANCH  25  26
ATOM     26 N15  MOL A   1       8.599 -17.386 -10.096  1.00  0.00    -0.287 NA
ATOM     27 C16  MOL A   1       7.266 -17.218 -10.699  1.00  0.00     0.064 C 
ATOM     28 C17  MOL A   1       7.567 -18.200 -11.814  1.00  0.00     0.272 C 
ATOM     29 F18  MOL A   1       7.625 -17.617 -13.068  1.00  0.00    -0.204 F 
ATOM     30 F19  MOL A   1       6.797 -19.351 -11.766  1.00  0.00    -0.204 F 
ATOM     31 C20  MOL A   1       8.924 -18.356 -11.156  1.00  0.00     0.064 C 
ENDBRANCH  25  26
ENDBRANCH  20  25
BRANCH  24  32
ATOM     32 O25  MOL A   1      13.144 -19.624  -7.937  1.00  0.00    -0.493 OA
ATOM     33 C26  MOL A   1      14.234 -20.522  -8.122  1.00  0.00     0.078 C 
ENDBRANCH  24  32
ENDBRANCH  18  19
ENDBRANCH  17  18
ENDBRANCH  15  17
ENDBRANCH   8  14
ENDBRANCH   1   8
TORSDOF 10
ENDMDL
MODEL 440
REMARK VINA RESULT:    -6.960      5.454      8.562
REMARK INTER + INTRA:         -12.077
REMARK INTER:                 -11.448
REMARK INTRA:                  -0.628
REMARK UNBOUND:                -1.048
REMARK  10 active torsions:
REMARK  status: ('A' for Active; 'I' for Inactive)
REMARK   1   A    between atoms:  C27_1   and   C6_8  
REMARK   2   A    between atoms:  C6_8    and   C5_9  
REMARK   3   A    between atoms:  C5_9    and   C3_12 
REMARK   4   A    between atoms:  C6_8    and   N7_14 
REMARK   5   A    between atoms:  C8_15   and  C10_17 
REMARK   6   A    between atoms: C10_17   and  O11_18 
REMARK   7   A    between atoms: O11_18   and  C12_19 
REMARK   8   A    between atoms: C13_20   and  C14_25 
REMARK   9   A    between atoms: C14_25   and  N15_26 
REMARK   10  A    between atoms: C24_24   and  O25_32 
ROOT
ATOM      1 C27  MOL A   1      14.301 -17.161  -7.286  1.00  0.00    -0.024 A 
ATOM      2 C28  MOL A   1      14.473 -16.184  -8.284  1.00  0.00    -0.057 A 
ATOM      3 C29  MOL A   1      14.415 -14.824  -7.960  1.00  0.00    -0.061 A 
ATOM      4 C30  MOL A   1      14.185 -14.426  -6.640  1.00  0.00    -0.048 A 
ATOM      5 C31  MOL A   1      14.015 -15.388  -5.638  1.00  0.00     0.018 A 
ATOM      6 Br32 MOL A   1      13.721 -14.842  -3.828  1.00  0.00    -0.051 Br
ATOM      7 C33  MOL A   1      14.067 -16.748  -5.958  1.00  0.00    -0.043 A 
ENDROOT
BRANCH   1   8
ATOM      8  C6  MOL A   1      14.293 -18.628  -7.656  1.00  0.00     0.063 C 
BRANCH   8   9
ATOM      9  C5  MOL A   1      14.922 -18.824  -9.047  1.00  0.00     0.051 C 
BRANCH   9  12
ATOM     10  C1  MOL A   1      18.552 -20.237  -9.083  1.00  0.00     0.006 C 
ATOM     11  N2  MOL A   1      17.418 -19.326  -9.134  1.00  0.00    -0.359 N 
ATOM     12  C3  MOL A   1      16.070 -19.791  -9.001  1.00  0.00     0.222 C 
ATOM     13  O4  MOL A   1      15.838 -21.020  -8.840  1.00  0.00    -0.275 OA
ENDBRANCH   9  12
ENDBRANCH   8   9
BRANCH   8  14
ATOM     14  N7  MOL A   1      12.923 -19.151  -7.630  1.00  0.00    -0.346 N 
ATOM     15  C8  MOL A   1      12.047 -19.069  -8.757  1.00  0.00     0.258 C 
ATOM     16  O9  MOL A   1      12.434 -18.522  -9.824  1.00  0.00    -0.271 OA
BRANCH  15  17
ATOM     17 C10  MOL A   1      10.664 -19.643  -8.685  1.00  0.00     0.167 C 
BRANCH  17  18
ATOM     18 O11  MOL A   1      10.277 -20.170  -9.952  1.00  0.00    -0.480 OA
BRANCH  18  19
ATOM     19 C12  MOL A   1       9.025 -20.756 -10.160  1.00  0.00     0.166 A 
ATOM     20 C13  MOL A   1       7.937 -20.000 -10.655  1.00  0.00     0.012 A 
ATOM     21 C21  MOL A   1       6.719 -20.646 -10.924  1.00  0.00    -0.054 A 
ATOM     22 C22  MOL A   1       6.568 -22.008 -10.662  1.00  0.00    -0.058 A 
ATOM     23 C23  MOL A   1       7.627 -22.741 -10.126  1.00  0.00    -0.016 A 
ATOM     24 C24  MOL A   1       8.862 -22.120  -9.867  1.00  0.00     0.161 A 
BRANCH  20  25
ATOM     25 C14  MOL A   1       8.048 -18.511 -10.901  1.00  0.00     0.028 C 
BRANCH  25  26
ATOM     26 N15  MOL A   1       7.144 -17.770  -9.997  1.00  0.00    -0.287 NA
ATOM     27 C16  MOL A   1       7.630 -16.403  -9.748  1.00  0.00     0.064 C 
ATOM     28 C17  MOL A   1       7.887 -16.684  -8.280  1.00  0.00     0.272 C 
ATOM     29 F18  MOL A   1       7.059 -15.978  -7.425  1.00  0.00    -0.204 F 
ATOM     30 F19  MOL A   1       9.227 -16.635  -7.931  1.00  0.00    -0.204 F 
ATOM     31 C20  MOL A   1       7.394 -18.085  -8.580  1.00  0.00     0.064 C 
ENDBRANCH  25  26
ENDBRANCH  20  25
BRANCH  24  32
ATOM     32 O25  MOL A   1       9.951 -22.821  -9.329  1.00  0.00    -0.493 OA
ATOM     33 C26  MOL A   1      10.426 -24.071  -9.819  1.00  0.00     0.078 C 
ENDBRANCH  24  32
ENDBRANCH  18  19
ENDBRANCH  17  18
ENDBRANCH  15  17
ENDBRANCH   8  14
ENDBRANCH   1   8
TORSDOF 10
ENDMDL
MODEL 441
REMARK VINA RESULT:    -6.956      7.181     11.531
REMARK INTER + INTRA:         -12.072
REMARK INTER:                 -10.304
REMARK INTRA:                  -1.768
REMARK UNBOUND:                -1.048
REMARK  10 active torsions:
REMARK  status: ('A' for Active; 'I' for Inactive)
REMARK   1   A    between atoms:  C27_1   and   C6_8  
REMARK   2   A    between atoms:  C6_8    and   C5_9  
REMARK   3   A    between atoms:  C5_9    and   C3_12 
REMARK   4   A    between atoms:  C6_8    and   N7_14 
REMARK   5   A    between atoms:  C8_15   and  C10_17 
REMARK   6   A    between atoms: C10_17   and  O11_18 
REMARK   7   A    between atoms: O11_18   and  C12_19 
REMARK   8   A    between atoms: C13_20   and  C14_25 
REMARK   9   A    between atoms: C14_25   and  N15_26 
REMARK   10  A    between atoms: C24_24   and  O25_32 
ROOT
ATOM      1 C27  MOL A   1       9.990 -18.310  -8.165  1.00  0.00    -0.024 A 
ATOM      2 C28  MOL A   1       9.625 -16.952  -8.199  1.00  0.00    -0.057 A 
ATOM      3 C29  MOL A   1       8.285 -16.584  -8.365  1.00  0.00    -0.061 A 
ATOM      4 C30  MOL A   1       7.300 -17.565  -8.500  1.00  0.00    -0.048 A 
ATOM      5 C31  MOL A   1       7.649 -18.920  -8.465  1.00  0.00     0.018 A 
ATOM      6 Br32 MOL A   1       6.296 -20.263  -8.627  1.00  0.00    -0.051 Br
ATOM      7 C33  MOL A   1       8.988 -19.292  -8.304  1.00  0.00    -0.043 A 
ENDROOT
BRANCH   1   8
ATOM      8  C6  MOL A   1      11.449 -18.699  -8.058  1.00  0.00     0.063 C 
BRANCH   8   9
ATOM      9  C5  MOL A   1      11.572 -20.150  -7.558  1.00  0.00     0.051 C 
BRANCH   9  12
ATOM     10  C1  MOL A   1      14.877 -21.549  -6.044  1.00  0.00     0.006 C 
ATOM     11  N2  MOL A   1      13.493 -21.127  -6.200  1.00  0.00    -0.359 N 
ATOM     12  C3  MOL A   1      13.008 -20.566  -7.425  1.00  0.00     0.222 C 
ATOM     13  O4  MOL A   1      13.788 -20.421  -8.406  1.00  0.00    -0.275 OA
ENDBRANCH   9  12
ENDBRANCH   8   9
BRANCH   8  14
ATOM     14  N7  MOL A   1      12.155 -17.781  -7.158  1.00  0.00    -0.346 N 
ATOM     15  C8  MOL A   1      13.213 -16.930  -7.603  1.00  0.00     0.258 C 
ATOM     16  O9  MOL A   1      13.584 -16.953  -8.806  1.00  0.00    -0.271 OA
BRANCH  15  17
ATOM     17 C10  MOL A   1      13.884 -15.991  -6.646  1.00  0.00     0.167 C 
BRANCH  17  18
ATOM     18 O11  MOL A   1      14.486 -16.715  -5.575  1.00  0.00    -0.480 OA
BRANCH  18  19
ATOM     19 C12  MOL A   1      15.817 -16.515  -5.201  1.00  0.00     0.166 A 
ATOM     20 C13  MOL A   1      16.863 -17.263  -5.790  1.00  0.00     0.012 A 
ATOM     21 C21  MOL A   1      18.193 -16.974  -5.442  1.00  0.00    -0.054 A 
ATOM     22 C22  MOL A   1      18.479 -15.994  -4.491  1.00  0.00    -0.058 A 
ATOM     23 C23  MOL A   1      17.443 -15.292  -3.874  1.00  0.00    -0.016 A 
ATOM     24 C24  MOL A   1      16.104 -15.550  -4.222  1.00  0.00     0.161 A 
BRANCH  20  25
ATOM     25 C14  MOL A   1      16.588 -18.369  -6.785  1.00  0.00     0.028 C 
BRANCH  25  26
ATOM     26 N15  MOL A   1      17.437 -18.207  -7.983  1.00  0.00    -0.287 NA
ATOM     27 C16  MOL A   1      16.677 -18.448  -9.221  1.00  0.00     0.064 C 
ATOM     28 C17  MOL A   1      17.478 -19.689  -9.559  1.00  0.00     0.272 C 
ATOM     29 F18  MOL A   1      18.261 -19.554 -10.693  1.00  0.00    -0.204 F 
ATOM     30 F19  MOL A   1      16.736 -20.858  -9.525  1.00  0.00    -0.204 F 
ATOM     31 C20  MOL A   1      18.229 -19.415  -8.270  1.00  0.00     0.064 C 
ENDBRANCH  25  26
ENDBRANCH  20  25
BRANCH  24  32
ATOM     32 O25  MOL A   1      15.034 -14.867  -3.625  1.00  0.00    -0.493 OA
ATOM     33 C26  MOL A   1      14.408 -15.258  -2.407  1.00  0.00     0.078 C 
ENDBRANCH  24  32
ENDBRANCH  18  19
ENDBRANCH  17  18
ENDBRANCH  15  17
ENDBRANCH   8  14
ENDBRANCH   1   8
TORSDOF 10
ENDMDL
MODEL 442
REMARK VINA RESULT:    -6.955      5.490      8.547
REMARK INTER + INTRA:         -12.069
REMARK INTER:                 -10.988
REMARK INTRA:                  -1.082
REMARK UNBOUND:                -1.048
REMARK  10 active torsions:
REMARK  status: ('A' for Active; 'I' for Inactive)
REMARK   1   A    between atoms:  C27_1   and   C6_8  
REMARK   2   A    between atoms:  C6_8    and   C5_9  
REMARK   3   A    between atoms:  C5_9    and   C3_12 
REMARK   4   A    between atoms:  C6_8    and   N7_14 
REMARK   5   A    between atoms:  C8_15   and  C10_17 
REMARK   6   A    between atoms: C10_17   and  O11_18 
REMARK   7   A    between atoms: O11_18   and  C12_19 
REMARK   8   A    between atoms: C13_20   and  C14_25 
REMARK   9   A    between atoms: C14_25   and  N15_26 
REMARK   10  A    between atoms: C24_24   and  O25_32 
ROOT
ATOM      1 C27  MOL A   1      15.067 -18.655  -8.206  1.00  0.00    -0.024 A 
ATOM      2 C28  MOL A   1      15.363 -18.889  -9.561  1.00  0.00    -0.057 A 
ATOM      3 C29  MOL A   1      16.628 -19.353  -9.939  1.00  0.00    -0.061 A 
ATOM      4 C30  MOL A   1      17.608 -19.586  -8.971  1.00  0.00    -0.048 A 
ATOM      5 C31  MOL A   1      17.326 -19.360  -7.619  1.00  0.00     0.018 A 
ATOM      6 Br32 MOL A   1      18.661 -19.700  -6.291  1.00  0.00    -0.051 Br
ATOM      7 C33  MOL A   1      16.064 -18.891  -7.238  1.00  0.00    -0.043 A 
ENDROOT
BRANCH   1   8
ATOM      8  C6  MOL A   1      13.722 -18.085  -7.812  1.00  0.00     0.063 C 
BRANCH   8   9
ATOM      9  C5  MOL A   1      13.818 -17.410  -6.432  1.00  0.00     0.051 C 
BRANCH   9  12
ATOM     10  C1  MOL A   1      14.727 -13.953  -7.981  1.00  0.00     0.006 C 
ATOM     11  N2  MOL A   1      14.441 -15.372  -7.828  1.00  0.00    -0.359 N 
ATOM     12  C3  MOL A   1      14.118 -15.944  -6.556  1.00  0.00     0.222 C 
ATOM     13  O4  MOL A   1      14.079 -15.216  -5.527  1.00  0.00    -0.275 OA
ENDBRANCH   9  12
ENDBRANCH   8   9
BRANCH   8  14
ATOM     14  N7  MOL A   1      12.705 -19.142  -7.800  1.00  0.00    -0.346 N 
ATOM     15  C8  MOL A   1      11.729 -19.282  -8.834  1.00  0.00     0.258 C 
ATOM     16  O9  MOL A   1      11.708 -18.476  -9.802  1.00  0.00    -0.271 OA
BRANCH  15  17
ATOM     17 C10  MOL A   1      10.728 -20.398  -8.786  1.00  0.00     0.167 C 
BRANCH  17  18
ATOM     18 O11  MOL A   1      10.162 -20.616 -10.076  1.00  0.00    -0.480 OA
BRANCH  18  19
ATOM     19 C12  MOL A   1       8.844 -21.050 -10.243  1.00  0.00     0.166 A 
ATOM     20 C13  MOL A   1       7.812 -20.143 -10.578  1.00  0.00     0.012 A 
ATOM     21 C21  MOL A   1       6.518 -20.635 -10.814  1.00  0.00    -0.054 A 
ATOM     22 C22  MOL A   1       6.240 -21.994 -10.673  1.00  0.00    -0.058 A 
ATOM     23 C23  MOL A   1       7.248 -22.880 -10.294  1.00  0.00    -0.016 A 
ATOM     24 C24  MOL A   1       8.557 -22.414 -10.071  1.00  0.00     0.161 A 
BRANCH  20  25
ATOM     25 C14  MOL A   1       8.064 -18.655 -10.688  1.00  0.00     0.028 C 
BRANCH  25  26
ATOM     26 N15  MOL A   1       8.197 -18.054  -9.345  1.00  0.00    -0.287 NA
ATOM     27 C16  MOL A   1       6.960 -18.206  -8.559  1.00  0.00     0.064 C 
ATOM     28 C17  MOL A   1       6.701 -16.712  -8.543  1.00  0.00     0.272 C 
ATOM     29 F18  MOL A   1       6.802 -16.144  -7.286  1.00  0.00    -0.204 F 
ATOM     30 F19  MOL A   1       5.562 -16.337  -9.238  1.00  0.00    -0.204 F 
ATOM     31 C20  MOL A   1       7.971 -16.599  -9.363  1.00  0.00     0.064 C 
ENDBRANCH  25  26
ENDBRANCH  20  25
BRANCH  24  32
ATOM     32 O25  MOL A   1       9.599 -23.271  -9.688  1.00  0.00    -0.493 OA
ATOM     33 C26  MOL A   1       9.458 -24.675  -9.498  1.00  0.00     0.078 C 
ENDBRANCH  24  32
ENDBRANCH  18  19
ENDBRANCH  17  18
ENDBRANCH  15  17
ENDBRANCH   8  14
ENDBRANCH   1   8
TORSDOF 10
ENDMDL
MODEL 443
REMARK VINA RESULT:    -6.955      7.256     11.804
REMARK INTER + INTRA:         -12.069
REMARK INTER:                 -10.820
REMARK INTRA:                  -1.249
REMARK UNBOUND:                -1.048
REMARK  10 active torsions:
REMARK  status: ('A' for Active; 'I' for Inactive)
REMARK   1   A    between atoms:  C27_1   and   C6_8  
REMARK   2   A    between atoms:  C6_8    and   C5_9  
REMARK   3   A    between atoms:  C5_9    and   C3_12 
REMARK   4   A    between atoms:  C6_8    and   N7_14 
REMARK   5   A    between atoms:  C8_15   and  C10_17 
REMARK   6   A    between atoms: C10_17   and  O11_18 
REMARK   7   A    between atoms: O11_18   and  C12_19 
REMARK   8   A    between atoms: C13_20   and  C14_25 
REMARK   9   A    between atoms: C14_25   and  N15_26 
REMARK   10  A    between atoms: C24_24   and  O25_32 
ROOT
ATOM      1 C27  MOL A   1      12.718 -19.994  -7.176  1.00  0.00    -0.024 A 
ATOM      2 C28  MOL A   1      13.475 -20.301  -6.031  1.00  0.00    -0.057 A 
ATOM      3 C29  MOL A   1      13.665 -21.632  -5.644  1.00  0.00    -0.061 A 
ATOM      4 C30  MOL A   1      13.103 -22.668  -6.395  1.00  0.00    -0.048 A 
ATOM      5 C31  MOL A   1      12.350 -22.377  -7.538  1.00  0.00     0.018 A 
ATOM      6 Br32 MOL A   1      11.599 -23.796  -8.578  1.00  0.00    -0.051 Br
ATOM      7 C33  MOL A   1      12.154 -21.047  -7.925  1.00  0.00    -0.043 A 
ENDROOT
BRANCH   1   8
ATOM      8  C6  MOL A   1      12.457 -18.550  -7.547  1.00  0.00     0.063 C 
BRANCH   8   9
ATOM      9  C5  MOL A   1      12.388 -18.403  -9.077  1.00  0.00     0.051 C 
BRANCH   9  12
ATOM     10  C1  MOL A   1       9.144 -18.649 -11.220  1.00  0.00     0.006 C 
ATOM     11  N2  MOL A   1      10.509 -18.824 -10.745  1.00  0.00    -0.359 N 
ATOM     12  C3  MOL A   1      10.977 -18.194  -9.547  1.00  0.00     0.222 C 
ATOM     13  O4  MOL A   1      10.203 -17.460  -8.874  1.00  0.00    -0.275 OA
ENDBRANCH   9  12
ENDBRANCH   8   9
BRANCH   8  14
ATOM     14  N7  MOL A   1      13.504 -17.686  -6.991  1.00  0.00    -0.346 N 
ATOM     15  C8  MOL A   1      13.254 -16.338  -6.588  1.00  0.00     0.258 C 
ATOM     16  O9  MOL A   1      12.103 -15.841  -6.710  1.00  0.00    -0.271 OA
BRANCH  15  17
ATOM     17 C10  MOL A   1      14.354 -15.505  -6.002  1.00  0.00     0.167 C 
BRANCH  17  18
ATOM     18 O11  MOL A   1      15.543 -15.631  -6.778  1.00  0.00    -0.480 OA
BRANCH  18  19
ATOM     19 C12  MOL A   1      16.614 -16.430  -6.370  1.00  0.00     0.166 A 
ATOM     20 C13  MOL A   1      17.207 -16.263  -5.097  1.00  0.00     0.012 A 
ATOM     21 C21  MOL A   1      18.229 -17.140  -4.697  1.00  0.00    -0.054 A 
ATOM     22 C22  MOL A   1      18.688 -18.134  -5.561  1.00  0.00    -0.058 A 
ATOM     23 C23  MOL A   1      18.137 -18.264  -6.836  1.00  0.00    -0.016 A 
ATOM     24 C24  MOL A   1      17.098 -17.410  -7.252  1.00  0.00     0.161 A 
BRANCH  20  25
ATOM     25 C14  MOL A   1      16.772 -15.164  -4.154  1.00  0.00     0.028 C 
BRANCH  25  26
ATOM     26 N15  MOL A   1      16.439 -15.724  -2.828  1.00  0.00    -0.287 NA
ATOM     27 C16  MOL A   1      15.299 -16.654  -2.903  1.00  0.00     0.064 C 
ATOM     28 C17  MOL A   1      14.410 -15.746  -2.076  1.00  0.00     0.272 C 
ATOM     29 F18  MOL A   1      14.075 -16.272  -0.840  1.00  0.00    -0.204 F 
ATOM     30 F19  MOL A   1      13.332 -15.232  -2.778  1.00  0.00    -0.204 F 
ATOM     31 C20  MOL A   1      15.601 -14.810  -2.033  1.00  0.00     0.064 C 
ENDBRANCH  25  26
ENDBRANCH  20  25
BRANCH  24  32
ATOM     32 O25  MOL A   1      16.517 -17.508  -8.524  1.00  0.00    -0.493 OA
ATOM     33 C26  MOL A   1      16.236 -18.735  -9.189  1.00  0.00     0.078 C 
ENDBRANCH  24  32
ENDBRANCH  18  19
ENDBRANCH  17  18
ENDBRANCH  15  17
ENDBRANCH   8  14
ENDBRANCH   1   8
TORSDOF 10
ENDMDL
MODEL 444
REMARK VINA RESULT:    -6.953     10.499     13.130
REMARK INTER + INTRA:         -12.066
REMARK INTER:                 -10.265
REMARK INTRA:                  -1.801
REMARK UNBOUND:                -1.048
REMARK  10 active torsions:
REMARK  status: ('A' for Active; 'I' for Inactive)
REMARK   1   A    between atoms:  C27_1   and   C6_8  
REMARK   2   A    between atoms:  C6_8    and   C5_9  
REMARK   3   A    between atoms:  C5_9    and   C3_12 
REMARK   4   A    between atoms:  C6_8    and   N7_14 
REMARK   5   A    between atoms:  C8_15   and  C10_17 
REMARK   6   A    between atoms: C10_17   and  O11_18 
REMARK   7   A    between atoms: O11_18   and  C12_19 
REMARK   8   A    between atoms: C13_20   and  C14_25 
REMARK   9   A    between atoms: C14_25   and  N15_26 
REMARK   10  A    between atoms: C24_24   and  O25_32 
ROOT
ATOM      1 C27  MOL A   1      15.672 -18.462  -0.560  1.00  0.00    -0.024 A 
ATOM      2 C28  MOL A   1      16.096 -17.921   0.667  1.00  0.00    -0.057 A 
ATOM      3 C29  MOL A   1      15.771 -18.557   1.871  1.00  0.00    -0.061 A 
ATOM      4 C30  MOL A   1      15.022 -19.736   1.861  1.00  0.00    -0.048 A 
ATOM      5 C31  MOL A   1      14.597 -20.287   0.647  1.00  0.00     0.018 A 
ATOM      6 Br32 MOL A   1      13.590 -21.914   0.633  1.00  0.00    -0.051 Br
ATOM      7 C33  MOL A   1      14.915 -19.651  -0.558  1.00  0.00    -0.043 A 
ENDROOT
BRANCH   1   8
ATOM      8  C6  MOL A   1      15.964 -17.730  -1.852  1.00  0.00     0.063 C 
BRANCH   8   9
ATOM      9  C5  MOL A   1      14.693 -17.023  -2.357  1.00  0.00     0.051 C 
BRANCH   9  12
ATOM     10  C1  MOL A   1      14.107 -13.294  -3.318  1.00  0.00     0.006 C 
ATOM     11  N2  MOL A   1      13.931 -14.731  -3.165  1.00  0.00    -0.359 N 
ATOM     12  C3  MOL A   1      14.909 -15.545  -2.508  1.00  0.00     0.222 C 
ATOM     13  O4  MOL A   1      15.960 -15.022  -2.047  1.00  0.00    -0.275 OA
ENDBRANCH   9  12
ENDBRANCH   8   9
BRANCH   8  14
ATOM     14  N7  MOL A   1      16.471 -18.664  -2.862  1.00  0.00    -0.346 N 
ATOM     15  C8  MOL A   1      17.372 -18.264  -3.897  1.00  0.00     0.258 C 
ATOM     16  O9  MOL A   1      17.756 -17.067  -3.977  1.00  0.00    -0.271 OA
BRANCH  15  17
ATOM     17 C10  MOL A   1      17.881 -19.266  -4.889  1.00  0.00     0.167 C 
BRANCH  17  18
ATOM     18 O11  MOL A   1      17.394 -18.966  -6.195  1.00  0.00    -0.480 OA
BRANCH  18  19
ATOM     19 C12  MOL A   1      16.314 -19.650  -6.759  1.00  0.00     0.166 A 
ATOM     20 C13  MOL A   1      15.031 -19.059  -6.829  1.00  0.00     0.012 A 
ATOM     21 C21  MOL A   1      13.993 -19.750  -7.475  1.00  0.00    -0.054 A 
ATOM     22 C22  MOL A   1      14.209 -21.025  -8.000  1.00  0.00    -0.058 A 
ATOM     23 C23  MOL A   1      15.463 -21.626  -7.885  1.00  0.00    -0.016 A 
ATOM     24 C24  MOL A   1      16.524 -20.945  -7.260  1.00  0.00     0.161 A 
BRANCH  20  25
ATOM     25 C14  MOL A   1      14.745 -17.702  -6.225  1.00  0.00     0.028 C 
BRANCH  25  26
ATOM     26 N15  MOL A   1      15.256 -16.629  -7.102  1.00  0.00    -0.287 NA
ATOM     27 C16  MOL A   1      15.472 -15.377  -6.357  1.00  0.00     0.064 C 
ATOM     28 C17  MOL A   1      14.378 -14.652  -7.114  1.00  0.00     0.272 C 
ATOM     29 F18  MOL A   1      14.846 -13.630  -7.923  1.00  0.00    -0.204 F 
ATOM     30 F19  MOL A   1      13.298 -14.293  -6.325  1.00  0.00    -0.204 F 
ATOM     31 C20  MOL A   1      14.177 -15.962  -7.850  1.00  0.00     0.064 C 
ENDBRANCH  25  26
ENDBRANCH  20  25
BRANCH  24  32
ATOM     32 O25  MOL A   1      17.798 -21.515  -7.124  1.00  0.00    -0.493 OA
ATOM     33 C26  MOL A   1      18.160 -22.803  -7.609  1.00  0.00     0.078 C 
ENDBRANCH  24  32
ENDBRANCH  18  19
ENDBRANCH  17  18
ENDBRANCH  15  17
ENDBRANCH   8  14
ENDBRANCH   1   8
TORSDOF 10
ENDMDL
MODEL 445
REMARK VINA RESULT:    -6.952     10.387     12.654
REMARK INTER + INTRA:         -12.064
REMARK INTER:                  -9.931
REMARK INTRA:                  -2.133
REMARK UNBOUND:                -1.048
REMARK  10 active torsions:
REMARK  status: ('A' for Active; 'I' for Inactive)
REMARK   1   A    between atoms:  C27_1   and   C6_8  
REMARK   2   A    between atoms:  C6_8    and   C5_9  
REMARK   3   A    between atoms:  C5_9    and   C3_12 
REMARK   4   A    between atoms:  C6_8    and   N7_14 
REMARK   5   A    between atoms:  C8_15   and  C10_17 
REMARK   6   A    between atoms: C10_17   and  O11_18 
REMARK   7   A    between atoms: O11_18   and  C12_19 
REMARK   8   A    between atoms: C13_20   and  C14_25 
REMARK   9   A    between atoms: C14_25   and  N15_26 
REMARK   10  A    between atoms: C24_24   and  O25_32 
ROOT
ATOM      1 C27  MOL A   1      14.634 -19.932  -7.118  1.00  0.00    -0.024 A 
ATOM      2 C28  MOL A   1      13.977 -21.168  -7.253  1.00  0.00    -0.057 A 
ATOM      3 C29  MOL A   1      12.592 -21.215  -7.451  1.00  0.00    -0.061 A 
ATOM      4 C30  MOL A   1      11.853 -20.031  -7.516  1.00  0.00    -0.048 A 
ATOM      5 C31  MOL A   1      12.495 -18.795  -7.387  1.00  0.00     0.018 A 
ATOM      6 Br32 MOL A   1      11.484 -17.174  -7.498  1.00  0.00    -0.051 Br
ATOM      7 C33  MOL A   1      13.878 -18.744  -7.183  1.00  0.00    -0.043 A 
ENDROOT
BRANCH   1   8
ATOM      8  C6  MOL A   1      16.120 -19.892  -6.831  1.00  0.00     0.063 C 
BRANCH   8   9
ATOM      9  C5  MOL A   1      16.619 -21.294  -6.438  1.00  0.00     0.051 C 
BRANCH   9  12
ATOM     10  C1  MOL A   1      19.287 -23.582  -8.116  1.00  0.00     0.006 C 
ATOM     11  N2  MOL A   1      18.314 -23.046  -7.176  1.00  0.00    -0.359 N 
ATOM     12  C3  MOL A   1      17.625 -21.815  -7.423  1.00  0.00     0.222 C 
ATOM     13  O4  MOL A   1      17.859 -21.160  -8.475  1.00  0.00    -0.275 OA
ENDBRANCH   9  12
ENDBRANCH   8   9
BRANCH   8  14
ATOM     14  N7  MOL A   1      16.406 -18.925  -5.765  1.00  0.00    -0.346 N 
ATOM     15  C8  MOL A   1      17.672 -18.275  -5.635  1.00  0.00     0.258 C 
ATOM     16  O9  MOL A   1      18.602 -18.529  -6.446  1.00  0.00    -0.271 OA
BRANCH  15  17
ATOM     17 C10  MOL A   1      17.903 -17.275  -4.543  1.00  0.00     0.167 C 
BRANCH  17  18
ATOM     18 O11  MOL A   1      17.629 -15.956  -5.008  1.00  0.00    -0.480 OA
BRANCH  18  19
ATOM     19 C12  MOL A   1      16.332 -15.528  -5.304  1.00  0.00     0.166 A 
ATOM     20 C13  MOL A   1      15.376 -15.332  -4.282  1.00  0.00     0.012 A 
ATOM     21 C21  MOL A   1      14.109 -14.825  -4.616  1.00  0.00    -0.054 A 
ATOM     22 C22  MOL A   1      13.780 -14.564  -5.946  1.00  0.00    -0.058 A 
ATOM     23 C23  MOL A   1      14.708 -14.806  -6.959  1.00  0.00    -0.016 A 
ATOM     24 C24  MOL A   1      15.990 -15.294  -6.646  1.00  0.00     0.161 A 
BRANCH  20  25
ATOM     25 C14  MOL A   1      15.679 -15.655  -2.835  1.00  0.00     0.028 C 
BRANCH  25  26
ATOM     26 N15  MOL A   1      14.590 -16.463  -2.248  1.00  0.00    -0.287 NA
ATOM     27 C16  MOL A   1      14.544 -16.327  -0.783  1.00  0.00     0.064 C 
ATOM     28 C17  MOL A   1      14.928 -17.777  -0.563  1.00  0.00     0.272 C 
ATOM     29 F18  MOL A   1      13.922 -18.538   0.006  1.00  0.00    -0.204 F 
ATOM     30 F19  MOL A   1      16.165 -17.941   0.040  1.00  0.00    -0.204 F 
ATOM     31 C20  MOL A   1      14.978 -17.874  -2.075  1.00  0.00     0.064 C 
ENDBRANCH  25  26
ENDBRANCH  20  25
BRANCH  24  32
ATOM     32 O25  MOL A   1      16.952 -15.551  -7.634  1.00  0.00    -0.493 OA
ATOM     33 C26  MOL A   1      16.800 -16.509  -8.676  1.00  0.00     0.078 C 
ENDBRANCH  24  32
ENDBRANCH  18  19
ENDBRANCH  17  18
ENDBRANCH  15  17
ENDBRANCH   8  14
ENDBRANCH   1   8
TORSDOF 10
ENDMDL
MODEL 446
REMARK VINA RESULT:    -6.947      6.878     10.889
REMARK INTER + INTRA:         -12.057
REMARK INTER:                 -10.419
REMARK INTRA:                  -1.638
REMARK UNBOUND:                -1.048
REMARK  10 active torsions:
REMARK  status: ('A' for Active; 'I' for Inactive)
REMARK   1   A    between atoms:  C27_1   and   C6_8  
REMARK   2   A    between atoms:  C6_8    and   C5_9  
REMARK   3   A    between atoms:  C5_9    and   C3_12 
REMARK   4   A    between atoms:  C6_8    and   N7_14 
REMARK   5   A    between atoms:  C8_15   and  C10_17 
REMARK   6   A    between atoms: C10_17   and  O11_18 
REMARK   7   A    between atoms: O11_18   and  C12_19 
REMARK   8   A    between atoms: C13_20   and  C14_25 
REMARK   9   A    between atoms: C14_25   and  N15_26 
REMARK   10  A    between atoms: C24_24   and  O25_32 
ROOT
ATOM      1 C27  MOL A   1       9.611 -21.595  -9.029  1.00  0.00    -0.024 A 
ATOM      2 C28  MOL A   1       8.632 -22.458  -9.554  1.00  0.00    -0.057 A 
ATOM      3 C29  MOL A   1       8.911 -23.817  -9.737  1.00  0.00    -0.061 A 
ATOM      4 C30  MOL A   1      10.168 -24.326  -9.400  1.00  0.00    -0.048 A 
ATOM      5 C31  MOL A   1      11.150 -23.480  -8.874  1.00  0.00     0.018 A 
ATOM      6 Br32 MOL A   1      12.863 -24.183  -8.392  1.00  0.00    -0.051 Br
ATOM      7 C33  MOL A   1      10.876 -22.120  -8.694  1.00  0.00    -0.043 A 
ENDROOT
BRANCH   1   8
ATOM      8  C6  MOL A   1       9.326 -20.114  -8.902  1.00  0.00     0.063 C 
BRANCH   8   9
ATOM      9  C5  MOL A   1       8.094 -19.740  -9.744  1.00  0.00     0.051 C 
BRANCH   9  12
ATOM     10  C1  MOL A   1       4.841 -19.642  -7.604  1.00  0.00     0.006 C 
ATOM     11  N2  MOL A   1       5.934 -20.107  -8.446  1.00  0.00    -0.359 N 
ATOM     12  C3  MOL A   1       6.974 -19.228  -8.885  1.00  0.00     0.222 C 
ATOM     13  O4  MOL A   1       6.958 -18.012  -8.549  1.00  0.00    -0.275 OA
ENDBRANCH   9  12
ENDBRANCH   8   9
BRANCH   8  14
ATOM     14  N7  MOL A   1      10.495 -19.334  -9.321  1.00  0.00    -0.346 N 
ATOM     15  C8  MOL A   1      11.044 -18.282  -8.525  1.00  0.00     0.258 C 
ATOM     16  O9  MOL A   1      10.520 -17.983  -7.419  1.00  0.00    -0.271 OA
BRANCH  15  17
ATOM     17 C10  MOL A   1      12.257 -17.533  -8.989  1.00  0.00     0.167 C 
BRANCH  17  18
ATOM     18 O11  MOL A   1      13.239 -17.484  -7.957  1.00  0.00    -0.480 OA
BRANCH  18  19
ATOM     19 C12  MOL A   1      14.519 -16.967  -8.175  1.00  0.00     0.166 A 
ATOM     20 C13  MOL A   1      15.532 -17.751  -8.771  1.00  0.00     0.012 A 
ATOM     21 C21  MOL A   1      16.780 -17.167  -9.044  1.00  0.00    -0.054 A 
ATOM     22 C22  MOL A   1      17.034 -15.842  -8.688  1.00  0.00    -0.058 A 
ATOM     23 C23  MOL A   1      16.049 -15.085  -8.055  1.00  0.00    -0.016 A 
ATOM     24 C24  MOL A   1      14.785 -15.643  -7.789  1.00  0.00     0.161 A 
BRANCH  20  25
ATOM     25 C14  MOL A   1      15.311 -19.206  -9.122  1.00  0.00     0.028 C 
BRANCH  25  26
ATOM     26 N15  MOL A   1      16.227 -20.069  -8.349  1.00  0.00    -0.287 NA
ATOM     27 C16  MOL A   1      15.794 -21.476  -8.370  1.00  0.00     0.064 C 
ATOM     28 C17  MOL A   1      15.497 -21.483  -6.883  1.00  0.00     0.272 C 
ATOM     29 F18  MOL A   1      16.337 -22.305  -6.153  1.00  0.00    -0.204 F 
ATOM     30 F19  MOL A   1      14.154 -21.645  -6.584  1.00  0.00    -0.204 F 
ATOM     31 C20  MOL A   1      15.938 -20.033  -6.905  1.00  0.00     0.064 C 
ENDBRANCH  25  26
ENDBRANCH  20  25
BRANCH  24  32
ATOM     32 O25  MOL A   1      13.768 -14.916  -7.153  1.00  0.00    -0.493 OA
ATOM     33 C26  MOL A   1      13.626 -14.794  -5.742  1.00  0.00     0.078 C 
ENDBRANCH  24  32
ENDBRANCH  18  19
ENDBRANCH  17  18
ENDBRANCH  15  17
ENDBRANCH   8  14
ENDBRANCH   1   8
TORSDOF 10
ENDMDL
MODEL 447
REMARK VINA RESULT:    -6.947      7.256     11.352
REMARK INTER + INTRA:         -12.056
REMARK INTER:                 -10.687
REMARK INTRA:                  -1.369
REMARK UNBOUND:                -1.048
REMARK  10 active torsions:
REMARK  status: ('A' for Active; 'I' for Inactive)
REMARK   1   A    between atoms:  C27_1   and   C6_8  
REMARK   2   A    between atoms:  C6_8    and   C5_9  
REMARK   3   A    between atoms:  C5_9    and   C3_12 
REMARK   4   A    between atoms:  C6_8    and   N7_14 
REMARK   5   A    between atoms:  C8_15   and  C10_17 
REMARK   6   A    between atoms: C10_17   and  O11_18 
REMARK   7   A    between atoms: O11_18   and  C12_19 
REMARK   8   A    between atoms: C13_20   and  C14_25 
REMARK   9   A    between atoms: C14_25   and  N15_26 
REMARK   10  A    between atoms: C24_24   and  O25_32 
ROOT
ATOM      1 C27  MOL A   1      11.087 -18.759  -8.985  1.00  0.00    -0.024 A 
ATOM      2 C28  MOL A   1      10.981 -19.202 -10.316  1.00  0.00    -0.057 A 
ATOM      3 C29  MOL A   1       9.844 -18.902 -11.073  1.00  0.00    -0.061 A 
ATOM      4 C30  MOL A   1       8.803 -18.158 -10.511  1.00  0.00    -0.048 A 
ATOM      5 C31  MOL A   1       8.897 -17.708  -9.189  1.00  0.00     0.018 A 
ATOM      6 Br32 MOL A   1       7.480 -16.672  -8.427  1.00  0.00    -0.051 Br
ATOM      7 C33  MOL A   1      10.030 -18.011  -8.427  1.00  0.00    -0.043 A 
ENDROOT
BRANCH   1   8
ATOM      8  C6  MOL A   1      12.287 -19.149  -8.149  1.00  0.00     0.063 C 
BRANCH   8   9
ATOM      9  C5  MOL A   1      11.825 -19.822  -6.844  1.00  0.00     0.051 C 
BRANCH   9  12
ATOM     10  C1  MOL A   1      12.412 -23.550  -7.807  1.00  0.00     0.006 C 
ATOM     11  N2  MOL A   1      11.981 -22.160  -7.842  1.00  0.00    -0.359 N 
ATOM     12  C3  MOL A   1      12.274 -21.253  -6.773  1.00  0.00     0.222 C 
ATOM     13  O4  MOL A   1      12.915 -21.651  -5.763  1.00  0.00    -0.275 OA
ENDBRANCH   9  12
ENDBRANCH   8   9
BRANCH   8  14
ATOM     14  N7  MOL A   1      13.110 -17.970  -7.859  1.00  0.00    -0.346 N 
ATOM     15  C8  MOL A   1      14.303 -17.667  -8.585  1.00  0.00     0.258 C 
ATOM     16  O9  MOL A   1      14.695 -18.428  -9.509  1.00  0.00    -0.271 OA
BRANCH  15  17
ATOM     17 C10  MOL A   1      15.093 -16.433  -8.265  1.00  0.00     0.167 C 
BRANCH  17  18
ATOM     18 O11  MOL A   1      16.490 -16.688  -8.394  1.00  0.00    -0.480 OA
BRANCH  18  19
ATOM     19 C12  MOL A   1      17.201 -17.418  -7.438  1.00  0.00     0.166 A 
ATOM     20 C13  MOL A   1      17.286 -16.979  -6.096  1.00  0.00     0.012 A 
ATOM     21 C21  MOL A   1      17.944 -17.783  -5.152  1.00  0.00    -0.054 A 
ATOM     22 C22  MOL A   1      18.550 -18.979  -5.539  1.00  0.00    -0.058 A 
ATOM     23 C23  MOL A   1      18.508 -19.386  -6.873  1.00  0.00    -0.016 A 
ATOM     24 C24  MOL A   1      17.837 -18.606  -7.834  1.00  0.00     0.161 A 
BRANCH  20  25
ATOM     25 C14  MOL A   1      16.687 -15.663  -5.650  1.00  0.00     0.028 C 
BRANCH  25  26
ATOM     26 N15  MOL A   1      15.794 -15.869  -4.492  1.00  0.00    -0.287 NA
ATOM     27 C16  MOL A   1      14.378 -15.877  -4.895  1.00  0.00     0.064 C 
ATOM     28 C17  MOL A   1      14.079 -14.599  -4.135  1.00  0.00     0.272 C 
ATOM     29 F18  MOL A   1      13.226 -14.779  -3.060  1.00  0.00    -0.204 F 
ATOM     30 F19  MOL A   1      13.738 -13.532  -4.950  1.00  0.00    -0.204 F 
ATOM     31 C20  MOL A   1      15.546 -14.619  -3.752  1.00  0.00     0.064 C 
ENDBRANCH  25  26
ENDBRANCH  20  25
BRANCH  24  32
ATOM     32 O25  MOL A   1      17.773 -18.979  -9.184  1.00  0.00    -0.493 OA
ATOM     33 C26  MOL A   1      18.240 -20.221  -9.699  1.00  0.00     0.078 C 
ENDBRANCH  24  32
ENDBRANCH  18  19
ENDBRANCH  17  18
ENDBRANCH  15  17
ENDBRANCH   8  14
ENDBRANCH   1   8
TORSDOF 10
ENDMDL
MODEL 448
REMARK VINA RESULT:    -6.947      7.190      9.777
REMARK INTER + INTRA:         -12.056
REMARK INTER:                 -10.803
REMARK INTRA:                  -1.253
REMARK UNBOUND:                -1.048
REMARK  10 active torsions:
REMARK  status: ('A' for Active; 'I' for Inactive)
REMARK   1   A    between atoms:  C27_1   and   C6_8  
REMARK   2   A    between atoms:  C6_8    and   C5_9  
REMARK   3   A    between atoms:  C5_9    and   C3_12 
REMARK   4   A    between atoms:  C6_8    and   N7_14 
REMARK   5   A    between atoms:  C8_15   and  C10_17 
REMARK   6   A    between atoms: C10_17   and  O11_18 
REMARK   7   A    between atoms: O11_18   and  C12_19 
REMARK   8   A    between atoms: C13_20   and  C14_25 
REMARK   9   A    between atoms: C14_25   and  N15_26 
REMARK   10  A    between atoms: C24_24   and  O25_32 
ROOT
ATOM      1 C27  MOL A   1       8.080 -21.909  -9.761  1.00  0.00    -0.024 A 
ATOM      2 C28  MOL A   1       7.459 -22.048 -11.016  1.00  0.00    -0.057 A 
ATOM      3 C29  MOL A   1       6.069 -21.943 -11.133  1.00  0.00    -0.061 A 
ATOM      4 C30  MOL A   1       5.286 -21.700 -10.001  1.00  0.00    -0.048 A 
ATOM      5 C31  MOL A   1       5.891 -21.557  -8.747  1.00  0.00     0.018 A 
ATOM      6 Br32 MOL A   1       4.821 -21.203  -7.202  1.00  0.00    -0.051 Br
ATOM      7 C33  MOL A   1       7.280 -21.666  -8.626  1.00  0.00    -0.043 A 
ENDROOT
BRANCH   1   8
ATOM      8  C6  MOL A   1       9.576 -22.096  -9.632  1.00  0.00     0.063 C 
BRANCH   8   9
ATOM      9  C5  MOL A   1       9.900 -23.573  -9.344  1.00  0.00     0.051 C 
BRANCH   9  12
ATOM     10  C1  MOL A   1      12.455 -25.709 -11.366  1.00  0.00     0.006 C 
ATOM     11  N2  MOL A   1      11.746 -25.065 -10.269  1.00  0.00    -0.359 N 
ATOM     12  C3  MOL A   1      10.617 -24.214 -10.497  1.00  0.00     0.222 C 
ATOM     13  O4  MOL A   1      10.213 -24.001 -11.673  1.00  0.00    -0.275 OA
ENDBRANCH   9  12
ENDBRANCH   8   9
BRANCH   8  14
ATOM     14  N7  MOL A   1      10.106 -21.234  -8.570  1.00  0.00    -0.346 N 
ATOM     15  C8  MOL A   1      10.627 -19.928  -8.828  1.00  0.00     0.258 C 
ATOM     16  O9  MOL A   1      10.654 -19.475 -10.003  1.00  0.00    -0.271 OA
BRANCH  15  17
ATOM     17 C10  MOL A   1      11.132 -19.078  -7.701  1.00  0.00     0.167 C 
BRANCH  17  18
ATOM     18 O11  MOL A   1      12.161 -19.757  -6.986  1.00  0.00    -0.480 OA
BRANCH  18  19
ATOM     19 C12  MOL A   1      13.363 -20.132  -7.593  1.00  0.00     0.166 A 
ATOM     20 C13  MOL A   1      14.201 -19.174  -8.209  1.00  0.00     0.012 A 
ATOM     21 C21  MOL A   1      15.436 -19.584  -8.738  1.00  0.00    -0.054 A 
ATOM     22 C22  MOL A   1      15.813 -20.926  -8.700  1.00  0.00    -0.058 A 
ATOM     23 C23  MOL A   1      14.962 -21.877  -8.137  1.00  0.00    -0.016 A 
ATOM     24 C24  MOL A   1      13.728 -21.488  -7.583  1.00  0.00     0.161 A 
BRANCH  20  25
ATOM     25 C14  MOL A   1      13.802 -17.719  -8.316  1.00  0.00     0.028 C 
BRANCH  25  26
ATOM     26 N15  MOL A   1      13.986 -17.037  -7.019  1.00  0.00    -0.287 NA
ATOM     27 C16  MOL A   1      13.076 -15.888  -6.877  1.00  0.00     0.064 C 
ATOM     28 C17  MOL A   1      14.217 -14.890  -6.882  1.00  0.00     0.272 C 
ATOM     29 F18  MOL A   1      14.384 -14.231  -5.677  1.00  0.00    -0.204 F 
ATOM     30 F19  MOL A   1      14.220 -14.052  -7.985  1.00  0.00    -0.204 F 
ATOM     31 C20  MOL A   1      15.120 -16.097  -7.041  1.00  0.00     0.064 C 
ENDBRANCH  25  26
ENDBRANCH  20  25
BRANCH  24  32
ATOM     32 O25  MOL A   1      12.844 -22.413  -7.009  1.00  0.00    -0.493 OA
ATOM     33 C26  MOL A   1      12.899 -23.820  -7.221  1.00  0.00     0.078 C 
ENDBRANCH  24  32
ENDBRANCH  18  19
ENDBRANCH  17  18
ENDBRANCH  15  17
ENDBRANCH   8  14
ENDBRANCH   1   8
TORSDOF 10
ENDMDL
MODEL 449
REMARK VINA RESULT:    -6.946      5.608     10.306
REMARK INTER + INTRA:         -12.055
REMARK INTER:                 -11.077
REMARK INTRA:                  -0.978
REMARK UNBOUND:                -1.048
REMARK  10 active torsions:
REMARK  status: ('A' for Active; 'I' for Inactive)
REMARK   1   A    between atoms:  C27_1   and   C6_8  
REMARK   2   A    between atoms:  C6_8    and   C5_9  
REMARK   3   A    between atoms:  C5_9    and   C3_12 
REMARK   4   A    between atoms:  C6_8    and   N7_14 
REMARK   5   A    between atoms:  C8_15   and  C10_17 
REMARK   6   A    between atoms: C10_17   and  O11_18 
REMARK   7   A    between atoms: O11_18   and  C12_19 
REMARK   8   A    between atoms: C13_20   and  C14_25 
REMARK   9   A    between atoms: C14_25   and  N15_26 
REMARK   10  A    between atoms: C24_24   and  O25_32 
ROOT
ATOM      1 C27  MOL A   1       8.387 -19.706  -9.029  1.00  0.00    -0.024 A 
ATOM      2 C28  MOL A   1       7.206 -20.123  -8.388  1.00  0.00    -0.057 A 
ATOM      3 C29  MOL A   1       6.738 -21.432  -8.551  1.00  0.00    -0.061 A 
ATOM      4 C30  MOL A   1       7.442 -22.334  -9.354  1.00  0.00    -0.048 A 
ATOM      5 C31  MOL A   1       8.619 -21.932  -9.994  1.00  0.00     0.018 A 
ATOM      6 Br32 MOL A   1       9.594 -23.174 -11.074  1.00  0.00    -0.051 Br
ATOM      7 C33  MOL A   1       9.088 -20.624  -9.837  1.00  0.00    -0.043 A 
ENDROOT
BRANCH   1   8
ATOM      8  C6  MOL A   1       8.848 -18.269  -8.906  1.00  0.00     0.063 C 
BRANCH   8   9
ATOM      9  C5  MOL A   1       8.057 -17.377  -9.880  1.00  0.00     0.051 C 
BRANCH   9  12
ATOM     10  C1  MOL A   1       5.657 -16.115  -7.083  1.00  0.00     0.006 C 
ATOM     11  N2  MOL A   1       6.765 -16.760  -7.774  1.00  0.00    -0.359 N 
ATOM     12  C3  MOL A   1       6.898 -16.710  -9.198  1.00  0.00     0.222 C 
ATOM     13  O4  MOL A   1       6.039 -16.101  -9.893  1.00  0.00    -0.275 OA
ENDBRANCH   9  12
ENDBRANCH   8   9
BRANCH   8  14
ATOM     14  N7  MOL A   1      10.287 -18.173  -9.170  1.00  0.00    -0.346 N 
ATOM     15  C8  MOL A   1      11.190 -17.514  -8.279  1.00  0.00     0.258 C 
ATOM     16  O9  MOL A   1      10.762 -16.977  -7.223  1.00  0.00    -0.271 OA
BRANCH  15  17
ATOM     17 C10  MOL A   1      12.657 -17.467  -8.584  1.00  0.00     0.167 C 
BRANCH  17  18
ATOM     18 O11  MOL A   1      13.413 -17.950  -7.476  1.00  0.00    -0.480 OA
BRANCH  18  19
ATOM     19 C12  MOL A   1      14.811 -17.945  -7.472  1.00  0.00     0.166 A 
ATOM     20 C13  MOL A   1      15.536 -16.843  -6.963  1.00  0.00     0.012 A 
ATOM     21 C21  MOL A   1      16.938 -16.913  -6.907  1.00  0.00    -0.054 A 
ATOM     22 C22  MOL A   1      17.611 -18.035  -7.391  1.00  0.00    -0.058 A 
ATOM     23 C23  MOL A   1      16.896 -19.100  -7.939  1.00  0.00    -0.016 A 
ATOM     24 C24  MOL A   1      15.490 -19.061  -7.988  1.00  0.00     0.161 A 
BRANCH  20  25
ATOM     25 C14  MOL A   1      14.844 -15.588  -6.479  1.00  0.00     0.028 C 
BRANCH  25  26
ATOM     26 N15  MOL A   1      14.044 -15.874  -5.270  1.00  0.00    -0.287 NA
ATOM     27 C16  MOL A   1      13.739 -14.645  -4.519  1.00  0.00     0.064 C 
ATOM     28 C17  MOL A   1      14.580 -15.074  -3.333  1.00  0.00     0.272 C 
ATOM     29 F18  MOL A   1      13.842 -15.324  -2.189  1.00  0.00    -0.204 F 
ATOM     30 F19  MOL A   1      15.692 -14.275  -3.120  1.00  0.00    -0.204 F 
ATOM     31 C20  MOL A   1      14.881 -16.320  -4.143  1.00  0.00     0.064 C 
ENDBRANCH  25  26
ENDBRANCH  20  25
BRANCH  24  32
ATOM     32 O25  MOL A   1      14.733 -20.109  -8.531  1.00  0.00    -0.493 OA
ATOM     33 C26  MOL A   1      14.613 -21.402  -7.948  1.00  0.00     0.078 C 
ENDBRANCH  24  32
ENDBRANCH  18  19
ENDBRANCH  17  18
ENDBRANCH  15  17
ENDBRANCH   8  14
ENDBRANCH   1   8
TORSDOF 10
ENDMDL
MODEL 450
REMARK VINA RESULT:    -6.945      8.534     12.218
REMARK INTER + INTRA:         -12.053
REMARK INTER:                 -10.628
REMARK INTRA:                  -1.425
REMARK UNBOUND:                -1.048
REMARK  10 active torsions:
REMARK  status: ('A' for Active; 'I' for Inactive)
REMARK   1   A    between atoms:  C27_1   and   C6_8  
REMARK   2   A    between atoms:  C6_8    and   C5_9  
REMARK   3   A    between atoms:  C5_9    and   C3_12 
REMARK   4   A    between atoms:  C6_8    and   N7_14 
REMARK   5   A    between atoms:  C8_15   and  C10_17 
REMARK   6   A    between atoms: C10_17   and  O11_18 
REMARK   7   A    between atoms: O11_18   and  C12_19 
REMARK   8   A    between atoms: C13_20   and  C14_25 
REMARK   9   A    between atoms: C14_25   and  N15_26 
REMARK   10  A    between atoms: C24_24   and  O25_32 
ROOT
ATOM      1 C27  MOL A   1      12.602 -17.906  -8.806  1.00  0.00    -0.024 A 
ATOM      2 C28  MOL A   1      12.310 -18.889  -9.769  1.00  0.00    -0.057 A 
ATOM      3 C29  MOL A   1      10.989 -19.116 -10.171  1.00  0.00    -0.061 A 
ATOM      4 C30  MOL A   1       9.949 -18.365  -9.616  1.00  0.00    -0.048 A 
ATOM      5 C31  MOL A   1      10.226 -17.382  -8.659  1.00  0.00     0.018 A 
ATOM      6 Br32 MOL A   1       8.803 -16.341  -7.916  1.00  0.00    -0.051 Br
ATOM      7 C33  MOL A   1      11.545 -17.156  -8.251  1.00  0.00    -0.043 A 
ENDROOT
BRANCH   1   8
ATOM      8  C6  MOL A   1      14.024 -17.717  -8.324  1.00  0.00     0.063 C 
BRANCH   8   9
ATOM      9  C5  MOL A   1      14.818 -19.024  -8.497  1.00  0.00     0.051 C 
BRANCH   9  12
ATOM     10  C1  MOL A   1      17.887 -17.199 -10.053  1.00  0.00     0.006 C 
ATOM     11  N2  MOL A   1      16.624 -17.459  -9.378  1.00  0.00    -0.359 N 
ATOM     12  C3  MOL A   1      16.119 -18.788  -9.207  1.00  0.00     0.222 C 
ATOM     13  O4  MOL A   1      16.770 -19.773  -9.652  1.00  0.00    -0.275 OA
ENDBRANCH   9  12
ENDBRANCH   8   9
BRANCH   8  14
ATOM     14  N7  MOL A   1      14.033 -17.290  -6.920  1.00  0.00    -0.346 N 
ATOM     15  C8  MOL A   1      14.477 -15.994  -6.513  1.00  0.00     0.258 C 
ATOM     16  O9  MOL A   1      14.892 -15.167  -7.368  1.00  0.00    -0.271 OA
BRANCH  15  17
ATOM     17 C10  MOL A   1      14.440 -15.600  -5.067  1.00  0.00     0.167 C 
BRANCH  17  18
ATOM     18 O11  MOL A   1      15.603 -16.070  -4.392  1.00  0.00    -0.480 OA
BRANCH  18  19
ATOM     19 C12  MOL A   1      15.573 -17.188  -3.554  1.00  0.00     0.166 A 
ATOM     20 C13  MOL A   1      14.959 -17.132  -2.282  1.00  0.00     0.012 A 
ATOM     21 C21  MOL A   1      14.882 -18.301  -1.506  1.00  0.00    -0.054 A 
ATOM     22 C22  MOL A   1      15.446 -19.492  -1.962  1.00  0.00    -0.058 A 
ATOM     23 C23  MOL A   1      16.096 -19.533  -3.195  1.00  0.00    -0.016 A 
ATOM     24 C24  MOL A   1      16.168 -18.380  -3.999  1.00  0.00     0.161 A 
BRANCH  20  25
ATOM     25 C14  MOL A   1      14.383 -15.846  -1.731  1.00  0.00     0.028 C 
BRANCH  25  26
ATOM     26 N15  MOL A   1      15.466 -14.943  -1.292  1.00  0.00    -0.287 NA
ATOM     27 C16  MOL A   1      16.031 -15.363   0.001  1.00  0.00     0.064 C 
ATOM     28 C17  MOL A   1      15.525 -14.122   0.709  1.00  0.00     0.272 C 
ATOM     29 F18  MOL A   1      16.533 -13.279   1.143  1.00  0.00    -0.204 F 
ATOM     30 F19  MOL A   1      14.559 -14.383   1.669  1.00  0.00    -0.204 F 
ATOM     31 C20  MOL A   1      14.946 -13.730  -0.636  1.00  0.00     0.064 C 
ENDBRANCH  25  26
ENDBRANCH  20  25
BRANCH  24  32
ATOM     32 O25  MOL A   1      16.813 -18.379  -5.245  1.00  0.00    -0.493 OA
ATOM     33 C26  MOL A   1      18.220 -18.505  -5.423  1.00  0.00     0.078 C 
ENDBRANCH  24  32
ENDBRANCH  18  19
ENDBRANCH  17  18
ENDBRANCH  15  17
ENDBRANCH   8  14
ENDBRANCH   1   8
TORSDOF 10
ENDMDL
MODEL 451
REMARK VINA RESULT:    -6.944      7.277     11.213
REMARK INTER + INTRA:         -12.052
REMARK INTER:                 -10.725
REMARK INTRA:                  -1.327
REMARK UNBOUND:                -1.048
REMARK  10 active torsions:
REMARK  status: ('A' for Active; 'I' for Inactive)
REMARK   1   A    between atoms:  C27_1   and   C6_8  
REMARK   2   A    between atoms:  C6_8    and   C5_9  
REMARK   3   A    between atoms:  C5_9    and   C3_12 
REMARK   4   A    between atoms:  C6_8    and   N7_14 
REMARK   5   A    between atoms:  C8_15   and  C10_17 
REMARK   6   A    between atoms: C10_17   and  O11_18 
REMARK   7   A    between atoms: O11_18   and  C12_19 
REMARK   8   A    between atoms: C13_20   and  C14_25 
REMARK   9   A    between atoms: C14_25   and  N15_26 
REMARK   10  A    between atoms: C24_24   and  O25_32 
ROOT
ATOM      1 C27  MOL A   1      12.622 -19.660  -7.819  1.00  0.00    -0.024 A 
ATOM      2 C28  MOL A   1      11.903 -20.460  -6.913  1.00  0.00    -0.057 A 
ATOM      3 C29  MOL A   1      12.384 -21.722  -6.547  1.00  0.00    -0.061 A 
ATOM      4 C30  MOL A   1      13.585 -22.196  -7.080  1.00  0.00    -0.048 A 
ATOM      5 C31  MOL A   1      14.313 -21.409  -7.980  1.00  0.00     0.018 A 
ATOM      6 Br32 MOL A   1      15.968 -22.050  -8.693  1.00  0.00    -0.051 Br
ATOM      7 C33  MOL A   1      13.832 -20.149  -8.353  1.00  0.00    -0.043 A 
ENDROOT
BRANCH   1   8
ATOM      8  C6  MOL A   1      12.059 -18.328  -8.266  1.00  0.00     0.063 C 
BRANCH   8   9
ATOM      9  C5  MOL A   1      12.126 -18.215  -9.800  1.00  0.00     0.051 C 
BRANCH   9  12
ATOM     10  C1  MOL A   1       8.325 -18.912 -10.286  1.00  0.00     0.006 C 
ATOM     11  N2  MOL A   1       9.604 -18.550  -9.692  1.00  0.00    -0.359 N 
ATOM     12  C3  MOL A   1      10.824 -18.605 -10.438  1.00  0.00     0.222 C 
ATOM     13  O4  MOL A   1      10.813 -18.980 -11.642  1.00  0.00    -0.275 OA
ENDBRANCH   9  12
ENDBRANCH   8   9
BRANCH   8  14
ATOM     14  N7  MOL A   1      12.795 -17.228  -7.634  1.00  0.00    -0.346 N 
ATOM     15  C8  MOL A   1      12.162 -16.264  -6.790  1.00  0.00     0.258 C 
ATOM     16  O9  MOL A   1      10.923 -16.329  -6.569  1.00  0.00    -0.271 OA
BRANCH  15  17
ATOM     17 C10  MOL A   1      12.966 -15.174  -6.148  1.00  0.00     0.167 C 
BRANCH  17  18
ATOM     18 O11  MOL A   1      14.349 -15.519  -6.128  1.00  0.00    -0.480 OA
BRANCH  18  19
ATOM     19 C12  MOL A   1      14.914 -16.253  -5.082  1.00  0.00     0.166 A 
ATOM     20 C13  MOL A   1      15.703 -17.399  -5.336  1.00  0.00     0.012 A 
ATOM     21 C21  MOL A   1      16.317 -18.060  -4.259  1.00  0.00    -0.054 A 
ATOM     22 C22  MOL A   1      16.113 -17.623  -2.950  1.00  0.00    -0.058 A 
ATOM     23 C23  MOL A   1      15.294 -16.522  -2.698  1.00  0.00    -0.016 A 
ATOM     24 C24  MOL A   1      14.684 -15.832  -3.762  1.00  0.00     0.161 A 
BRANCH  20  25
ATOM     25 C14  MOL A   1      15.904 -17.934  -6.736  1.00  0.00     0.028 C 
BRANCH  25  26
ATOM     26 N15  MOL A   1      16.997 -17.208  -7.414  1.00  0.00    -0.287 NA
ATOM     27 C16  MOL A   1      16.511 -16.478  -8.597  1.00  0.00     0.064 C 
ATOM     28 C17  MOL A   1      17.305 -17.349  -9.551  1.00  0.00     0.272 C 
ATOM     29 F18  MOL A   1      18.319 -16.672 -10.207  1.00  0.00    -0.204 F 
ATOM     30 F19  MOL A   1      16.517 -18.125 -10.386  1.00  0.00    -0.204 F 
ATOM     31 C20  MOL A   1      17.773 -18.083  -8.310  1.00  0.00     0.064 C 
ENDBRANCH  25  26
ENDBRANCH  20  25
BRANCH  24  32
ATOM     32 O25  MOL A   1      13.853 -14.722  -3.552  1.00  0.00    -0.493 OA
ATOM     33 C26  MOL A   1      14.161 -13.638  -2.682  1.00  0.00     0.078 C 
ENDBRANCH  24  32
ENDBRANCH  18  19
ENDBRANCH  17  18
ENDBRANCH  15  17
ENDBRANCH   8  14
ENDBRANCH   1   8
TORSDOF 10
ENDMDL
MODEL 452
REMARK VINA RESULT:    -6.944      7.800     11.962
REMARK INTER + INTRA:         -12.052
REMARK INTER:                 -10.405
REMARK INTRA:                  -1.647
REMARK UNBOUND:                -1.048
REMARK  10 active torsions:
REMARK  status: ('A' for Active; 'I' for Inactive)
REMARK   1   A    between atoms:  C27_1   and   C6_8  
REMARK   2   A    between atoms:  C6_8    and   C5_9  
REMARK   3   A    between atoms:  C5_9    and   C3_12 
REMARK   4   A    between atoms:  C6_8    and   N7_14 
REMARK   5   A    between atoms:  C8_15   and  C10_17 
REMARK   6   A    between atoms: C10_17   and  O11_18 
REMARK   7   A    between atoms: O11_18   and  C12_19 
REMARK   8   A    between atoms: C13_20   and  C14_25 
REMARK   9   A    between atoms: C14_25   and  N15_26 
REMARK   10  A    between atoms: C24_24   and  O25_32 
ROOT
ATOM      1 C27  MOL A   1      15.533 -16.099  -4.787  1.00  0.00    -0.024 A 
ATOM      2 C28  MOL A   1      15.485 -17.446  -4.384  1.00  0.00    -0.057 A 
ATOM      3 C29  MOL A   1      16.661 -18.126  -4.048  1.00  0.00    -0.061 A 
ATOM      4 C30  MOL A   1      17.893 -17.471  -4.113  1.00  0.00    -0.048 A 
ATOM      5 C31  MOL A   1      17.954 -16.130  -4.509  1.00  0.00     0.018 A 
ATOM      6 Br32 MOL A   1      19.640 -15.227  -4.576  1.00  0.00    -0.051 Br
ATOM      7 C33  MOL A   1      16.782 -15.448  -4.850  1.00  0.00    -0.043 A 
ENDROOT
BRANCH   1   8
ATOM      8  C6  MOL A   1      14.266 -15.392  -5.218  1.00  0.00     0.063 C 
BRANCH   8   9
ATOM      9  C5  MOL A   1      13.377 -15.111  -3.993  1.00  0.00     0.051 C 
BRANCH   9  12
ATOM     10  C1  MOL A   1      15.008 -13.620  -0.786  1.00  0.00     0.006 C 
ATOM     11  N2  MOL A   1      14.368 -14.536  -1.719  1.00  0.00    -0.359 N 
ATOM     12  C3  MOL A   1      14.027 -14.140  -3.052  1.00  0.00     0.222 C 
ATOM     13  O4  MOL A   1      14.275 -12.967  -3.446  1.00  0.00    -0.275 OA
ENDBRANCH   9  12
ENDBRANCH   8   9
BRANCH   8  14
ATOM     14  N7  MOL A   1      13.544 -16.201  -6.206  1.00  0.00    -0.346 N 
ATOM     15  C8  MOL A   1      13.811 -16.122  -7.608  1.00  0.00     0.258 C 
ATOM     16  O9  MOL A   1      14.689 -15.330  -8.043  1.00  0.00    -0.271 OA
BRANCH  15  17
ATOM     17 C10  MOL A   1      13.061 -16.990  -8.573  1.00  0.00     0.167 C 
BRANCH  17  18
ATOM     18 O11  MOL A   1      11.883 -17.511  -7.963  1.00  0.00    -0.480 OA
BRANCH  18  19
ATOM     19 C12  MOL A   1      11.378 -18.774  -8.284  1.00  0.00     0.166 A 
ATOM     20 C13  MOL A   1      12.013 -19.953  -7.828  1.00  0.00     0.012 A 
ATOM     21 C21  MOL A   1      11.427 -21.199  -8.108  1.00  0.00    -0.054 A 
ATOM     22 C22  MOL A   1      10.260 -21.278  -8.868  1.00  0.00    -0.058 A 
ATOM     23 C23  MOL A   1       9.663 -20.117  -9.360  1.00  0.00    -0.016 A 
ATOM     24 C24  MOL A   1      10.221 -18.856  -9.075  1.00  0.00     0.161 A 
BRANCH  20  25
ATOM     25 C14  MOL A   1      13.307 -19.909  -7.047  1.00  0.00     0.028 C 
BRANCH  25  26
ATOM     26 N15  MOL A   1      13.890 -21.262  -6.939  1.00  0.00    -0.287 NA
ATOM     27 C16  MOL A   1      14.697 -21.408  -5.715  1.00  0.00     0.064 C 
ATOM     28 C17  MOL A   1      15.986 -21.569  -6.497  1.00  0.00     0.272 C 
ATOM     29 F18  MOL A   1      16.551 -22.827  -6.385  1.00  0.00    -0.204 F 
ATOM     30 F19  MOL A   1      16.885 -20.531  -6.309  1.00  0.00    -0.204 F 
ATOM     31 C20  MOL A   1      15.123 -21.401  -7.733  1.00  0.00     0.064 C 
ENDBRANCH  25  26
ENDBRANCH  20  25
BRANCH  24  32
ATOM     32 O25  MOL A   1       9.653 -17.665  -9.551  1.00  0.00    -0.493 OA
ATOM     33 C26  MOL A   1       8.475 -17.066  -9.021  1.00  0.00     0.078 C 
ENDBRANCH  24  32
ENDBRANCH  18  19
ENDBRANCH  17  18
ENDBRANCH  15  17
ENDBRANCH   8  14
ENDBRANCH   1   8
TORSDOF 10
ENDMDL
MODEL 453
REMARK VINA RESULT:    -6.943      6.408     10.748
REMARK INTER + INTRA:         -12.051
REMARK INTER:                 -11.036
REMARK INTRA:                  -1.014
REMARK UNBOUND:                -1.048
REMARK  10 active torsions:
REMARK  status: ('A' for Active; 'I' for Inactive)
REMARK   1   A    between atoms:  C27_1   and   C6_8  
REMARK   2   A    between atoms:  C6_8    and   C5_9  
REMARK   3   A    between atoms:  C5_9    and   C3_12 
REMARK   4   A    between atoms:  C6_8    and   N7_14 
REMARK   5   A    between atoms:  C8_15   and  C10_17 
REMARK   6   A    between atoms: C10_17   and  O11_18 
REMARK   7   A    between atoms: O11_18   and  C12_19 
REMARK   8   A    between atoms: C13_20   and  C14_25 
REMARK   9   A    between atoms: C14_25   and  N15_26 
REMARK   10  A    between atoms: C24_24   and  O25_32 
ROOT
ATOM      1 C27  MOL A   1       8.621 -20.700  -9.261  1.00  0.00    -0.024 A 
ATOM      2 C28  MOL A   1       7.493 -21.224  -9.919  1.00  0.00    -0.057 A 
ATOM      3 C29  MOL A   1       7.471 -22.562 -10.328  1.00  0.00    -0.061 A 
ATOM      4 C30  MOL A   1       8.571 -23.388 -10.084  1.00  0.00    -0.048 A 
ATOM      5 C31  MOL A   1       9.698 -22.880  -9.428  1.00  0.00     0.018 A 
ATOM      6 Br32 MOL A   1      11.195 -24.018  -9.076  1.00  0.00    -0.051 Br
ATOM      7 C33  MOL A   1       9.726 -21.542  -9.022  1.00  0.00    -0.043 A 
ENDROOT
BRANCH   1   8
ATOM      8  C6  MOL A   1       8.666 -19.234  -8.887  1.00  0.00     0.063 C 
BRANCH   8   9
ATOM      9  C5  MOL A   1       7.468 -18.494  -9.509  1.00  0.00     0.051 C 
BRANCH   9  12
ATOM     10  C1  MOL A   1       5.389 -16.318  -7.036  1.00  0.00     0.006 C 
ATOM     11  N2  MOL A   1       6.359 -16.735  -8.038  1.00  0.00    -0.359 N 
ATOM     12  C3  MOL A   1       6.464 -18.097  -8.465  1.00  0.00     0.222 C 
ATOM     13  O4  MOL A   1       5.708 -18.976  -7.968  1.00  0.00    -0.275 OA
ENDBRANCH   9  12
ENDBRANCH   8   9
BRANCH   8  14
ATOM     14  N7  MOL A   1       9.930 -18.636  -9.330  1.00  0.00    -0.346 N 
ATOM     15  C8  MOL A   1      10.855 -18.031  -8.423  1.00  0.00     0.258 C 
ATOM     16  O9  MOL A   1      10.598 -17.987  -7.190  1.00  0.00    -0.271 OA
BRANCH  15  17
ATOM     17 C10  MOL A   1      12.145 -17.457  -8.926  1.00  0.00     0.167 C 
BRANCH  17  18
ATOM     18 O11  MOL A   1      13.133 -17.474  -7.898  1.00  0.00    -0.480 OA
BRANCH  18  19
ATOM     19 C12  MOL A   1      14.435 -17.016  -8.115  1.00  0.00     0.166 A 
ATOM     20 C13  MOL A   1      15.423 -17.859  -8.675  1.00  0.00     0.012 A 
ATOM     21 C21  MOL A   1      16.697 -17.334  -8.948  1.00  0.00    -0.054 A 
ATOM     22 C22  MOL A   1      17.001 -16.011  -8.627  1.00  0.00    -0.058 A 
ATOM     23 C23  MOL A   1      16.041 -15.196  -8.028  1.00  0.00    -0.016 A 
ATOM     24 C24  MOL A   1      14.751 -15.694  -7.763  1.00  0.00     0.161 A 
BRANCH  20  25
ATOM     25 C14  MOL A   1      15.146 -19.313  -8.987  1.00  0.00     0.028 C 
BRANCH  25  26
ATOM     26 N15  MOL A   1      14.833 -20.056  -7.749  1.00  0.00    -0.287 NA
ATOM     27 C16  MOL A   1      16.056 -20.448  -7.029  1.00  0.00     0.064 C 
ATOM     28 C17  MOL A   1      15.808 -21.925  -7.264  1.00  0.00     0.272 C 
ATOM     29 F18  MOL A   1      15.534 -22.634  -6.107  1.00  0.00    -0.204 F 
ATOM     30 F19  MOL A   1      16.752 -22.527  -8.080  1.00  0.00    -0.204 F 
ATOM     31 C20  MOL A   1      14.564 -21.480  -8.008  1.00  0.00     0.064 C 
ENDBRANCH  25  26
ENDBRANCH  20  25
BRANCH  24  32
ATOM     32 O25  MOL A   1      13.758 -14.908  -7.162  1.00  0.00    -0.493 OA
ATOM     33 C26  MOL A   1      13.148 -15.200  -5.909  1.00  0.00     0.078 C 
ENDBRANCH  24  32
ENDBRANCH  18  19
ENDBRANCH  17  18
ENDBRANCH  15  17
ENDBRANCH   8  14
ENDBRANCH   1   8
TORSDOF 10
ENDMDL
MODEL 454
REMARK VINA RESULT:    -6.942      6.414     10.849
REMARK INTER + INTRA:         -12.049
REMARK INTER:                 -10.620
REMARK INTRA:                  -1.429
REMARK UNBOUND:                -1.048
REMARK  10 active torsions:
REMARK  status: ('A' for Active; 'I' for Inactive)
REMARK   1   A    between atoms:  C27_1   and   C6_8  
REMARK   2   A    between atoms:  C6_8    and   C5_9  
REMARK   3   A    between atoms:  C5_9    and   C3_12 
REMARK   4   A    between atoms:  C6_8    and   N7_14 
REMARK   5   A    between atoms:  C8_15   and  C10_17 
REMARK   6   A    between atoms: C10_17   and  O11_18 
REMARK   7   A    between atoms: O11_18   and  C12_19 
REMARK   8   A    between atoms: C13_20   and  C14_25 
REMARK   9   A    between atoms: C14_25   and  N15_26 
REMARK   10  A    between atoms: C24_24   and  O25_32 
ROOT
ATOM      1 C27  MOL A   1       8.505 -18.143 -10.419  1.00  0.00    -0.024 A 
ATOM      2 C28  MOL A   1       8.594 -18.518 -11.772  1.00  0.00    -0.057 A 
ATOM      3 C29  MOL A   1       7.799 -17.886 -12.734  1.00  0.00    -0.061 A 
ATOM      4 C30  MOL A   1       6.910 -16.877 -12.357  1.00  0.00    -0.048 A 
ATOM      5 C31  MOL A   1       6.814 -16.492 -11.015  1.00  0.00     0.018 A 
ATOM      6 Br32 MOL A   1       5.612 -15.095 -10.502  1.00  0.00    -0.051 Br
ATOM      7 C33  MOL A   1       7.603 -17.125 -10.049  1.00  0.00    -0.043 A 
ENDROOT
BRANCH   1   8
ATOM      8  C6  MOL A   1       9.315 -18.880  -9.374  1.00  0.00     0.063 C 
BRANCH   8   9
ATOM      9  C5  MOL A   1       8.380 -19.476  -8.306  1.00  0.00     0.051 C 
BRANCH   9  12
ATOM     10  C1  MOL A   1       7.846 -23.023  -9.824  1.00  0.00     0.006 C 
ATOM     11  N2  MOL A   1       8.472 -21.799  -9.347  1.00  0.00    -0.359 N 
ATOM     12  C3  MOL A   1       7.703 -20.722  -8.799  1.00  0.00     0.222 C 
ATOM     13  O4  MOL A   1       6.448 -20.815  -8.725  1.00  0.00    -0.275 OA
ENDBRANCH   9  12
ENDBRANCH   8   9
BRANCH   8  14
ATOM     14  N7  MOL A   1      10.293 -17.977  -8.759  1.00  0.00    -0.346 N 
ATOM     15  C8  MOL A   1      11.696 -18.070  -9.019  1.00  0.00     0.258 C 
ATOM     16  O9  MOL A   1      12.141 -18.957  -9.794  1.00  0.00    -0.271 OA
BRANCH  15  17
ATOM     17 C10  MOL A   1      12.650 -17.104  -8.383  1.00  0.00     0.167 C 
BRANCH  17  18
ATOM     18 O11  MOL A   1      13.996 -17.535  -8.571  1.00  0.00    -0.480 OA
BRANCH  18  19
ATOM     19 C12  MOL A   1      14.850 -17.788  -7.495  1.00  0.00     0.166 A 
ATOM     20 C13  MOL A   1      15.098 -19.107  -7.052  1.00  0.00     0.012 A 
ATOM     21 C21  MOL A   1      16.026 -19.320  -6.018  1.00  0.00    -0.054 A 
ATOM     22 C22  MOL A   1      16.659 -18.241  -5.402  1.00  0.00    -0.058 A 
ATOM     23 C23  MOL A   1      16.375 -16.937  -5.807  1.00  0.00    -0.016 A 
ATOM     24 C24  MOL A   1      15.465 -16.700  -6.853  1.00  0.00     0.161 A 
BRANCH  20  25
ATOM     25 C14  MOL A   1      14.391 -20.298  -7.660  1.00  0.00     0.028 C 
BRANCH  25  26
ATOM     26 N15  MOL A   1      13.645 -21.039  -6.622  1.00  0.00    -0.287 NA
ATOM     27 C16  MOL A   1      14.208 -22.383  -6.407  1.00  0.00     0.064 C 
ATOM     28 C17  MOL A   1      12.965 -23.069  -6.939  1.00  0.00     0.272 C 
ATOM     29 F18  MOL A   1      12.270 -23.784  -5.978  1.00  0.00    -0.204 F 
ATOM     30 F19  MOL A   1      13.174 -23.768  -8.116  1.00  0.00    -0.204 F 
ATOM     31 C20  MOL A   1      12.425 -21.669  -7.158  1.00  0.00     0.064 C 
ENDBRANCH  25  26
ENDBRANCH  20  25
BRANCH  24  32
ATOM     32 O25  MOL A   1      15.151 -15.404  -7.290  1.00  0.00    -0.493 OA
ATOM     33 C26  MOL A   1      16.061 -14.537  -7.959  1.00  0.00     0.078 C 
ENDBRANCH  24  32
ENDBRANCH  18  19
ENDBRANCH  17  18
ENDBRANCH  15  17
ENDBRANCH   8  14
ENDBRANCH   1   8
TORSDOF 10
ENDMDL
MODEL 455
REMARK VINA RESULT:    -6.938      6.916     10.771
REMARK INTER + INTRA:         -12.043
REMARK INTER:                 -11.025
REMARK INTRA:                  -1.018
REMARK UNBOUND:                -1.048
REMARK  10 active torsions:
REMARK  status: ('A' for Active; 'I' for Inactive)
REMARK   1   A    between atoms:  C27_1   and   C6_8  
REMARK   2   A    between atoms:  C6_8    and   C5_9  
REMARK   3   A    between atoms:  C5_9    and   C3_12 
REMARK   4   A    between atoms:  C6_8    and   N7_14 
REMARK   5   A    between atoms:  C8_15   and  C10_17 
REMARK   6   A    between atoms: C10_17   and  O11_18 
REMARK   7   A    between atoms: O11_18   and  C12_19 
REMARK   8   A    between atoms: C13_20   and  C14_25 
REMARK   9   A    between atoms: C14_25   and  N15_26 
REMARK   10  A    between atoms: C24_24   and  O25_32 
ROOT
ATOM      1 C27  MOL A   1       9.645 -18.802  -8.576  1.00  0.00    -0.024 A 
ATOM      2 C28  MOL A   1       9.350 -17.897  -9.613  1.00  0.00    -0.057 A 
ATOM      3 C29  MOL A   1       8.092 -17.908 -10.225  1.00  0.00    -0.061 A 
ATOM      4 C30  MOL A   1       7.118 -18.820  -9.809  1.00  0.00    -0.048 A 
ATOM      5 C31  MOL A   1       7.397 -19.723  -8.777  1.00  0.00     0.018 A 
ATOM      6 Br32 MOL A   1       6.055 -20.956  -8.194  1.00  0.00    -0.051 Br
ATOM      7 C33  MOL A   1       8.655 -19.718  -8.166  1.00  0.00    -0.043 A 
ENDROOT
BRANCH   1   8
ATOM      8  C6  MOL A   1      11.031 -18.833  -7.969  1.00  0.00     0.063 C 
BRANCH   8   9
ATOM      9  C5  MOL A   1      11.174 -20.054  -7.044  1.00  0.00     0.051 C 
BRANCH   9  12
ATOM     10  C1  MOL A   1      14.500 -21.852  -7.981  1.00  0.00     0.006 C 
ATOM     11  N2  MOL A   1      13.546 -20.887  -7.454  1.00  0.00    -0.359 N 
ATOM     12  C3  MOL A   1      12.133 -21.062  -7.608  1.00  0.00     0.222 C 
ATOM     13  O4  MOL A   1      11.684 -22.071  -8.217  1.00  0.00    -0.275 OA
ENDBRANCH   9  12
ENDBRANCH   8   9
BRANCH   8  14
ATOM     14  N7  MOL A   1      11.290 -17.592  -7.230  1.00  0.00    -0.346 N 
ATOM     15  C8  MOL A   1      12.575 -16.967  -7.203  1.00  0.00     0.258 C 
ATOM     16  O9  MOL A   1      13.545 -17.482  -7.819  1.00  0.00    -0.271 OA
BRANCH  15  17
ATOM     17 C10  MOL A   1      12.778 -15.685  -6.453  1.00  0.00     0.167 C 
BRANCH  17  18
ATOM     18 O11  MOL A   1      13.996 -15.061  -6.853  1.00  0.00    -0.480 OA
BRANCH  18  19
ATOM     19 C12  MOL A   1      15.179 -15.209  -6.124  1.00  0.00     0.166 A 
ATOM     20 C13  MOL A   1      16.388 -15.575  -6.758  1.00  0.00     0.012 A 
ATOM     21 C21  MOL A   1      17.569 -15.635  -5.999  1.00  0.00    -0.054 A 
ATOM     22 C22  MOL A   1      17.543 -15.383  -4.628  1.00  0.00    -0.058 A 
ATOM     23 C23  MOL A   1      16.340 -15.071  -3.995  1.00  0.00    -0.016 A 
ATOM     24 C24  MOL A   1      15.148 -14.985  -4.737  1.00  0.00     0.161 A 
BRANCH  20  25
ATOM     25 C14  MOL A   1      16.446 -15.907  -8.233  1.00  0.00     0.028 C 
BRANCH  25  26
ATOM     26 N15  MOL A   1      17.407 -17.002  -8.478  1.00  0.00    -0.287 NA
ATOM     27 C16  MOL A   1      17.630 -17.215  -9.918  1.00  0.00     0.064 C 
ATOM     28 C17  MOL A   1      16.991 -18.589  -9.889  1.00  0.00     0.272 C 
ATOM     29 F18  MOL A   1      17.880 -19.620 -10.138  1.00  0.00    -0.204 F 
ATOM     30 F19  MOL A   1      15.815 -18.673 -10.617  1.00  0.00    -0.204 F 
ATOM     31 C20  MOL A   1      16.768 -18.328  -8.412  1.00  0.00     0.064 C 
ENDBRANCH  25  26
ENDBRANCH  20  25
BRANCH  24  32
ATOM     32 O25  MOL A   1      13.918 -14.675  -4.139  1.00  0.00    -0.493 OA
ATOM     33 C26  MOL A   1      13.750 -13.740  -3.079  1.00  0.00     0.078 C 
ENDBRANCH  24  32
ENDBRANCH  18  19
ENDBRANCH  17  18
ENDBRANCH  15  17
ENDBRANCH   8  14
ENDBRANCH   1   8
TORSDOF 10
ENDMDL
MODEL 456
REMARK VINA RESULT:    -6.938      7.545     12.369
REMARK INTER + INTRA:         -12.042
REMARK INTER:                 -10.414
REMARK INTRA:                  -1.629
REMARK UNBOUND:                -1.048
REMARK  10 active torsions:
REMARK  status: ('A' for Active; 'I' for Inactive)
REMARK   1   A    between atoms:  C27_1   and   C6_8  
REMARK   2   A    between atoms:  C6_8    and   C5_9  
REMARK   3   A    between atoms:  C5_9    and   C3_12 
REMARK   4   A    between atoms:  C6_8    and   N7_14 
REMARK   5   A    between atoms:  C8_15   and  C10_17 
REMARK   6   A    between atoms: C10_17   and  O11_18 
REMARK   7   A    between atoms: O11_18   and  C12_19 
REMARK   8   A    between atoms: C13_20   and  C14_25 
REMARK   9   A    between atoms: C14_25   and  N15_26 
REMARK   10  A    between atoms: C24_24   and  O25_32 
ROOT
ATOM      1 C27  MOL A   1      13.651 -19.624  -7.973  1.00  0.00    -0.024 A 
ATOM      2 C28  MOL A   1      14.833 -19.850  -8.700  1.00  0.00    -0.057 A 
ATOM      3 C29  MOL A   1      15.415 -21.122  -8.727  1.00  0.00    -0.061 A 
ATOM      4 C30  MOL A   1      14.824 -22.179  -8.028  1.00  0.00    -0.048 A 
ATOM      5 C31  MOL A   1      13.646 -21.968  -7.303  1.00  0.00     0.018 A 
ATOM      6 Br32 MOL A   1      12.826 -23.420  -6.365  1.00  0.00    -0.051 Br
ATOM      7 C33  MOL A   1      13.065 -20.696  -7.270  1.00  0.00    -0.043 A 
ENDROOT
BRANCH   1   8
ATOM      8  C6  MOL A   1      13.068 -18.230  -7.889  1.00  0.00     0.063 C 
BRANCH   8   9
ATOM      9  C5  MOL A   1      12.503 -17.812  -9.259  1.00  0.00     0.051 C 
BRANCH   9  12
ATOM     10  C1  MOL A   1       8.692 -17.816  -8.452  1.00  0.00     0.006 C 
ATOM     11  N2  MOL A   1      10.125 -17.569  -8.379  1.00  0.00    -0.359 N 
ATOM     12  C3  MOL A   1      11.031 -18.093  -9.356  1.00  0.00     0.222 C 
ATOM     13  O4  MOL A   1      10.596 -18.794 -10.310  1.00  0.00    -0.275 OA
ENDBRANCH   9  12
ENDBRANCH   8   9
BRANCH   8  14
ATOM     14  N7  MOL A   1      14.089 -17.278  -7.440  1.00  0.00    -0.346 N 
ATOM     15  C8  MOL A   1      13.777 -16.134  -6.643  1.00  0.00     0.258 C 
ATOM     16  O9  MOL A   1      12.586 -15.901  -6.305  1.00  0.00    -0.271 OA
BRANCH  15  17
ATOM     17 C10  MOL A   1      14.864 -15.206  -6.189  1.00  0.00     0.167 C 
BRANCH  17  18
ATOM     18 O11  MOL A   1      15.951 -15.944  -5.635  1.00  0.00    -0.480 OA
BRANCH  18  19
ATOM     19 C12  MOL A   1      15.869 -16.556  -4.381  1.00  0.00     0.166 A 
ATOM     20 C13  MOL A   1      16.126 -17.937  -4.223  1.00  0.00     0.012 A 
ATOM     21 C21  MOL A   1      16.110 -18.493  -2.933  1.00  0.00    -0.054 A 
ATOM     22 C22  MOL A   1      15.798 -17.705  -1.825  1.00  0.00    -0.058 A 
ATOM     23 C23  MOL A   1      15.496 -16.353  -1.990  1.00  0.00    -0.016 A 
ATOM     24 C24  MOL A   1      15.525 -15.769  -3.270  1.00  0.00     0.161 A 
BRANCH  20  25
ATOM     25 C14  MOL A   1      16.415 -18.834  -5.406  1.00  0.00     0.028 C 
BRANCH  25  26
ATOM     26 N15  MOL A   1      17.815 -19.304  -5.367  1.00  0.00    -0.287 NA
ATOM     27 C16  MOL A   1      18.733 -18.322  -5.969  1.00  0.00     0.064 C 
ATOM     28 C17  MOL A   1      19.086 -19.247  -7.117  1.00  0.00     0.272 C 
ATOM     29 F18  MOL A   1      20.402 -19.676  -7.101  1.00  0.00    -0.204 F 
ATOM     30 F19  MOL A   1      18.660 -18.789  -8.353  1.00  0.00    -0.204 F 
ATOM     31 C20  MOL A   1      18.123 -20.226  -6.473  1.00  0.00     0.064 C 
ENDBRANCH  25  26
ENDBRANCH  20  25
BRANCH  24  32
ATOM     32 O25  MOL A   1      15.227 -14.414  -3.478  1.00  0.00    -0.493 OA
ATOM     33 C26  MOL A   1      13.990 -13.800  -3.134  1.00  0.00     0.078 C 
ENDBRANCH  24  32
ENDBRANCH  18  19
ENDBRANCH  17  18
ENDBRANCH  15  17
ENDBRANCH   8  14
ENDBRANCH   1   8
TORSDOF 10
ENDMDL
MODEL 457
REMARK VINA RESULT:    -6.938      7.358     11.119
REMARK INTER + INTRA:         -12.042
REMARK INTER:                 -10.701
REMARK INTRA:                  -1.342
REMARK UNBOUND:                -1.048
REMARK  10 active torsions:
REMARK  status: ('A' for Active; 'I' for Inactive)
REMARK   1   A    between atoms:  C27_1   and   C6_8  
REMARK   2   A    between atoms:  C6_8    and   C5_9  
REMARK   3   A    between atoms:  C5_9    and   C3_12 
REMARK   4   A    between atoms:  C6_8    and   N7_14 
REMARK   5   A    between atoms:  C8_15   and  C10_17 
REMARK   6   A    between atoms: C10_17   and  O11_18 
REMARK   7   A    between atoms: O11_18   and  C12_19 
REMARK   8   A    between atoms: C13_20   and  C14_25 
REMARK   9   A    between atoms: C14_25   and  N15_26 
REMARK   10  A    between atoms: C24_24   and  O25_32 
ROOT
ATOM      1 C27  MOL A   1      17.631 -18.857  -5.181  1.00  0.00    -0.024 A 
ATOM      2 C28  MOL A   1      18.431 -17.727  -5.428  1.00  0.00    -0.057 A 
ATOM      3 C29  MOL A   1      18.403 -16.635  -4.554  1.00  0.00    -0.061 A 
ATOM      4 C30  MOL A   1      17.578 -16.661  -3.427  1.00  0.00    -0.048 A 
ATOM      5 C31  MOL A   1      16.779 -17.780  -3.167  1.00  0.00     0.018 A 
ATOM      6 Br32 MOL A   1      15.665 -17.823  -1.612  1.00  0.00    -0.051 Br
ATOM      7 C33  MOL A   1      16.800 -18.871  -4.042  1.00  0.00    -0.043 A 
ENDROOT
BRANCH   1   8
ATOM      8  C6  MOL A   1      17.613 -20.003  -6.170  1.00  0.00     0.063 C 
BRANCH   8   9
ATOM      9  C5  MOL A   1      19.012 -20.193  -6.783  1.00  0.00     0.051 C 
BRANCH   9  12
ATOM     10  C1  MOL A   1      18.729 -21.273 -10.515  1.00  0.00     0.006 C 
ATOM     11  N2  MOL A   1      18.784 -21.310  -9.061  1.00  0.00    -0.359 N 
ATOM     12  C3  MOL A   1      18.970 -20.123  -8.282  1.00  0.00     0.222 C 
ATOM     13  O4  MOL A   1      19.096 -19.005  -8.854  1.00  0.00    -0.275 OA
ENDBRANCH   9  12
ENDBRANCH   8   9
BRANCH   8  14
ATOM     14  N7  MOL A   1      16.618 -19.752  -7.219  1.00  0.00    -0.346 N 
ATOM     15  C8  MOL A   1      15.277 -20.238  -7.139  1.00  0.00     0.258 C 
ATOM     16  O9  MOL A   1      14.906 -20.918  -6.146  1.00  0.00    -0.271 OA
BRANCH  15  17
ATOM     17 C10  MOL A   1      14.293 -19.931  -8.228  1.00  0.00     0.167 C 
BRANCH  17  18
ATOM     18 O11  MOL A   1      14.281 -18.533  -8.510  1.00  0.00    -0.480 OA
BRANCH  18  19
ATOM     19 C12  MOL A   1      13.408 -17.654  -7.863  1.00  0.00     0.166 A 
ATOM     20 C13  MOL A   1      12.012 -17.719  -8.079  1.00  0.00     0.012 A 
ATOM     21 C21  MOL A   1      11.165 -16.869  -7.348  1.00  0.00    -0.054 A 
ATOM     22 C22  MOL A   1      11.696 -15.937  -6.456  1.00  0.00    -0.058 A 
ATOM     23 C23  MOL A   1      13.077 -15.841  -6.282  1.00  0.00    -0.016 A 
ATOM     24 C24  MOL A   1      13.944 -16.695  -6.988  1.00  0.00     0.161 A 
BRANCH  20  25
ATOM     25 C14  MOL A   1      11.404 -18.679  -9.078  1.00  0.00     0.028 C 
BRANCH  25  26
ATOM     26 N15  MOL A   1       9.951 -18.443  -9.202  1.00  0.00    -0.287 NA
ATOM     27 C16  MOL A   1       9.176 -19.650  -8.870  1.00  0.00     0.064 C 
ATOM     28 C17  MOL A   1       8.664 -19.800 -10.289  1.00  0.00     0.272 C 
ATOM     29 F18  MOL A   1       7.300 -19.601 -10.412  1.00  0.00    -0.204 F 
ATOM     30 F19  MOL A   1       9.125 -20.938 -10.931  1.00  0.00    -0.204 F 
ATOM     31 C20  MOL A   1       9.486 -18.563 -10.594  1.00  0.00     0.064 C 
ENDBRANCH  25  26
ENDBRANCH  20  25
BRANCH  24  32
ATOM     32 O25  MOL A   1      15.337 -16.630  -6.842  1.00  0.00    -0.493 OA
ATOM     33 C26  MOL A   1      16.216 -16.016  -7.778  1.00  0.00     0.078 C 
ENDBRANCH  24  32
ENDBRANCH  18  19
ENDBRANCH  17  18
ENDBRANCH  15  17
ENDBRANCH   8  14
ENDBRANCH   1   8
TORSDOF 10
ENDMDL
MODEL 458
REMARK VINA RESULT:    -6.937      6.603     10.503
REMARK INTER + INTRA:         -12.040
REMARK INTER:                 -10.818
REMARK INTRA:                  -1.222
REMARK UNBOUND:                -1.048
REMARK  10 active torsions:
REMARK  status: ('A' for Active; 'I' for Inactive)
REMARK   1   A    between atoms:  C27_1   and   C6_8  
REMARK   2   A    between atoms:  C6_8    and   C5_9  
REMARK   3   A    between atoms:  C5_9    and   C3_12 
REMARK   4   A    between atoms:  C6_8    and   N7_14 
REMARK   5   A    between atoms:  C8_15   and  C10_17 
REMARK   6   A    between atoms: C10_17   and  O11_18 
REMARK   7   A    between atoms: O11_18   and  C12_19 
REMARK   8   A    between atoms: C13_20   and  C14_25 
REMARK   9   A    between atoms: C14_25   and  N15_26 
REMARK   10  A    between atoms: C24_24   and  O25_32 
ROOT
ATOM      1 C27  MOL A   1      15.557 -18.163  -3.709  1.00  0.00    -0.024 A 
ATOM      2 C28  MOL A   1      15.722 -19.528  -3.411  1.00  0.00    -0.057 A 
ATOM      3 C29  MOL A   1      15.508 -20.000  -2.112  1.00  0.00    -0.061 A 
ATOM      4 C30  MOL A   1      15.129 -19.115  -1.098  1.00  0.00    -0.048 A 
ATOM      5 C31  MOL A   1      14.958 -17.756  -1.381  1.00  0.00     0.018 A 
ATOM      6 Br32 MOL A   1      14.418 -16.549   0.002  1.00  0.00    -0.051 Br
ATOM      7 C33  MOL A   1      15.176 -17.280  -2.678  1.00  0.00    -0.043 A 
ENDROOT
BRANCH   1   8
ATOM      8  C6  MOL A   1      15.860 -17.649  -5.100  1.00  0.00     0.063 C 
BRANCH   8   9
ATOM      9  C5  MOL A   1      16.253 -16.162  -5.038  1.00  0.00     0.051 C 
BRANCH   9  12
ATOM     10  C1  MOL A   1      14.630 -14.206  -7.991  1.00  0.00     0.006 C 
ATOM     11  N2  MOL A   1      14.830 -14.874  -6.712  1.00  0.00    -0.359 N 
ATOM     12  C3  MOL A   1      16.075 -15.490  -6.369  1.00  0.00     0.222 C 
ATOM     13  O4  MOL A   1      17.037 -15.470  -7.186  1.00  0.00    -0.275 OA
ENDBRANCH   9  12
ENDBRANCH   8   9
BRANCH   8  14
ATOM     14  N7  MOL A   1      14.700 -17.841  -5.977  1.00  0.00    -0.346 N 
ATOM     15  C8  MOL A   1      14.741 -18.679  -7.134  1.00  0.00     0.258 C 
ATOM     16  O9  MOL A   1      15.803 -19.282  -7.444  1.00  0.00    -0.271 OA
BRANCH  15  17
ATOM     17 C10  MOL A   1      13.518 -18.861  -7.982  1.00  0.00     0.167 C 
BRANCH  17  18
ATOM     18 O11  MOL A   1      12.522 -19.592  -7.271  1.00  0.00    -0.480 OA
BRANCH  18  19
ATOM     19 C12  MOL A   1      12.010 -20.803  -7.746  1.00  0.00     0.166 A 
ATOM     20 C13  MOL A   1      10.887 -20.835  -8.603  1.00  0.00     0.012 A 
ATOM     21 C21  MOL A   1      10.455 -22.068  -9.121  1.00  0.00    -0.054 A 
ATOM     22 C22  MOL A   1      11.095 -23.252  -8.756  1.00  0.00    -0.058 A 
ATOM     23 C23  MOL A   1      12.172 -23.223  -7.870  1.00  0.00    -0.016 A 
ATOM     24 C24  MOL A   1      12.635 -21.998  -7.355  1.00  0.00     0.161 A 
BRANCH  20  25
ATOM     25 C14  MOL A   1      10.134 -19.577  -8.978  1.00  0.00     0.028 C 
BRANCH  25  26
ATOM     26 N15  MOL A   1       9.236 -19.835 -10.122  1.00  0.00    -0.287 NA
ATOM     27 C16  MOL A   1       9.405 -18.826 -11.182  1.00  0.00     0.064 C 
ATOM     28 C17  MOL A   1       8.007 -18.275 -10.981  1.00  0.00     0.272 C 
ATOM     29 F18  MOL A   1       7.164 -18.494 -12.057  1.00  0.00    -0.204 F 
ATOM     30 F19  MOL A   1       7.984 -16.975 -10.505  1.00  0.00    -0.204 F 
ATOM     31 C20  MOL A   1       7.877 -19.319  -9.889  1.00  0.00     0.064 C 
ENDBRANCH  25  26
ENDBRANCH  20  25
BRANCH  24  32
ATOM     32 O25  MOL A   1      13.714 -21.926  -6.462  1.00  0.00    -0.493 OA
ATOM     33 C26  MOL A   1      14.923 -22.666  -6.596  1.00  0.00     0.078 C 
ENDBRANCH  24  32
ENDBRANCH  18  19
ENDBRANCH  17  18
ENDBRANCH  15  17
ENDBRANCH   8  14
ENDBRANCH   1   8
TORSDOF 10
ENDMDL
MODEL 459
REMARK VINA RESULT:    -6.936      7.042     11.689
REMARK INTER + INTRA:         -12.039
REMARK INTER:                 -10.127
REMARK INTRA:                  -1.912
REMARK UNBOUND:                -1.048
REMARK  10 active torsions:
REMARK  status: ('A' for Active; 'I' for Inactive)
REMARK   1   A    between atoms:  C27_1   and   C6_8  
REMARK   2   A    between atoms:  C6_8    and   C5_9  
REMARK   3   A    between atoms:  C5_9    and   C3_12 
REMARK   4   A    between atoms:  C6_8    and   N7_14 
REMARK   5   A    between atoms:  C8_15   and  C10_17 
REMARK   6   A    between atoms: C10_17   and  O11_18 
REMARK   7   A    between atoms: O11_18   and  C12_19 
REMARK   8   A    between atoms: C13_20   and  C14_25 
REMARK   9   A    between atoms: C14_25   and  N15_26 
REMARK   10  A    between atoms: C24_24   and  O25_32 
ROOT
ATOM      1 C27  MOL A   1      13.196 -20.136  -6.913  1.00  0.00    -0.024 A 
ATOM      2 C28  MOL A   1      14.527 -19.990  -6.481  1.00  0.00    -0.057 A 
ATOM      3 C29  MOL A   1      15.252 -21.101  -6.036  1.00  0.00    -0.061 A 
ATOM      4 C30  MOL A   1      14.656 -22.365  -6.016  1.00  0.00    -0.048 A 
ATOM      5 C31  MOL A   1      13.334 -22.524  -6.446  1.00  0.00     0.018 A 
ATOM      6 Br32 MOL A   1      12.527 -24.259  -6.440  1.00  0.00    -0.051 Br
ATOM      7 C33  MOL A   1      12.604 -21.415  -6.887  1.00  0.00    -0.043 A 
ENDROOT
BRANCH   1   8
ATOM      8  C6  MOL A   1      12.395 -18.919  -7.324  1.00  0.00     0.063 C 
BRANCH   8   9
ATOM      9  C5  MOL A   1      11.531 -19.247  -8.555  1.00  0.00     0.051 C 
BRANCH   9  12
ATOM     10  C1  MOL A   1       8.420 -16.909  -8.715  1.00  0.00     0.006 C 
ATOM     11  N2  MOL A   1       9.774 -17.427  -8.848  1.00  0.00    -0.359 N 
ATOM     12  C3  MOL A   1      10.128 -18.738  -8.394  1.00  0.00     0.222 C 
ATOM     13  O4  MOL A   1       9.259 -19.478  -7.857  1.00  0.00    -0.275 OA
ENDBRANCH   9  12
ENDBRANCH   8   9
BRANCH   8  14
ATOM     14  N7  MOL A   1      13.292 -17.793  -7.608  1.00  0.00    -0.346 N 
ATOM     15  C8  MOL A   1      13.029 -16.465  -7.150  1.00  0.00     0.258 C 
ATOM     16  O9  MOL A   1      11.989 -16.218  -6.482  1.00  0.00    -0.271 OA
BRANCH  15  17
ATOM     17 C10  MOL A   1      13.992 -15.356  -7.446  1.00  0.00     0.167 C 
BRANCH  17  18
ATOM     18 O11  MOL A   1      14.863 -15.142  -6.337  1.00  0.00    -0.480 OA
BRANCH  18  19
ATOM     19 C12  MOL A   1      15.743 -16.128  -5.885  1.00  0.00     0.166 A 
ATOM     20 C13  MOL A   1      15.708 -16.581  -4.546  1.00  0.00     0.012 A 
ATOM     21 C21  MOL A   1      16.557 -17.630  -4.155  1.00  0.00    -0.054 A 
ATOM     22 C22  MOL A   1      17.459 -18.187  -5.062  1.00  0.00    -0.058 A 
ATOM     23 C23  MOL A   1      17.527 -17.704  -6.369  1.00  0.00    -0.016 A 
ATOM     24 C24  MOL A   1      16.673 -16.668  -6.790  1.00  0.00     0.161 A 
BRANCH  20  25
ATOM     25 C14  MOL A   1      14.782 -15.966  -3.521  1.00  0.00     0.028 C 
BRANCH  25  26
ATOM     26 N15  MOL A   1      15.388 -14.750  -2.942  1.00  0.00    -0.287 NA
ATOM     27 C16  MOL A   1      15.909 -14.997  -1.586  1.00  0.00     0.064 C 
ATOM     28 C17  MOL A   1      14.895 -14.069  -0.948  1.00  0.00     0.272 C 
ATOM     29 F18  MOL A   1      15.456 -12.936  -0.384  1.00  0.00    -0.204 F 
ATOM     30 F19  MOL A   1      13.988 -14.716  -0.124  1.00  0.00    -0.204 F 
ATOM     31 C20  MOL A   1      14.379 -13.850  -2.357  1.00  0.00     0.064 C 
ENDBRANCH  25  26
ENDBRANCH  20  25
BRANCH  24  32
ATOM     32 O25  MOL A   1      16.710 -16.154  -8.094  1.00  0.00    -0.493 OA
ATOM     33 C26  MOL A   1      17.501 -16.691  -9.149  1.00  0.00     0.078 C 
ENDBRANCH  24  32
ENDBRANCH  18  19
ENDBRANCH  17  18
ENDBRANCH  15  17
ENDBRANCH   8  14
ENDBRANCH   1   8
TORSDOF 10
ENDMDL
MODEL 460
REMARK VINA RESULT:    -6.934      8.943     12.141
REMARK INTER + INTRA:         -12.036
REMARK INTER:                 -10.308
REMARK INTRA:                  -1.728
REMARK UNBOUND:                -1.048
REMARK  10 active torsions:
REMARK  status: ('A' for Active; 'I' for Inactive)
REMARK   1   A    between atoms:  C27_1   and   C6_8  
REMARK   2   A    between atoms:  C6_8    and   C5_9  
REMARK   3   A    between atoms:  C5_9    and   C3_12 
REMARK   4   A    between atoms:  C6_8    and   N7_14 
REMARK   5   A    between atoms:  C8_15   and  C10_17 
REMARK   6   A    between atoms: C10_17   and  O11_18 
REMARK   7   A    between atoms: O11_18   and  C12_19 
REMARK   8   A    between atoms: C13_20   and  C14_25 
REMARK   9   A    between atoms: C14_25   and  N15_26 
REMARK   10  A    between atoms: C24_24   and  O25_32 
ROOT
ATOM      1 C27  MOL A   1      15.734 -17.496  -1.977  1.00  0.00    -0.024 A 
ATOM      2 C28  MOL A   1      15.007 -16.534  -1.252  1.00  0.00    -0.057 A 
ATOM      3 C29  MOL A   1      14.232 -16.915  -0.151  1.00  0.00    -0.061 A 
ATOM      4 C30  MOL A   1      14.174 -18.257   0.236  1.00  0.00    -0.048 A 
ATOM      5 C31  MOL A   1      14.895 -19.223  -0.475  1.00  0.00     0.018 A 
ATOM      6 Br32 MOL A   1      14.832 -21.056   0.068  1.00  0.00    -0.051 Br
ATOM      7 C33  MOL A   1      15.666 -18.847  -1.579  1.00  0.00    -0.043 A 
ENDROOT
BRANCH   1   8
ATOM      8  C6  MOL A   1      16.511 -17.087  -3.209  1.00  0.00     0.063 C 
BRANCH   8   9
ATOM      9  C5  MOL A   1      16.692 -15.558  -3.235  1.00  0.00     0.051 C 
BRANCH   9  12
ATOM     10  C1  MOL A   1      19.415 -14.412  -0.697  1.00  0.00     0.006 C 
ATOM     11  N2  MOL A   1      18.140 -14.800  -1.281  1.00  0.00    -0.359 N 
ATOM     12  C3  MOL A   1      18.020 -15.151  -2.664  1.00  0.00     0.222 C 
ATOM     13  O4  MOL A   1      19.034 -15.124  -3.414  1.00  0.00    -0.275 OA
ENDBRANCH   9  12
ENDBRANCH   8   9
BRANCH   8  14
ATOM     14  N7  MOL A   1      15.823 -17.546  -4.420  1.00  0.00    -0.346 N 
ATOM     15  C8  MOL A   1      16.237 -18.703  -5.149  1.00  0.00     0.258 C 
ATOM     16  O9  MOL A   1      17.235 -19.371  -4.767  1.00  0.00    -0.271 OA
BRANCH  15  17
ATOM     17 C10  MOL A   1      15.481 -19.144  -6.366  1.00  0.00     0.167 C 
BRANCH  17  18
ATOM     18 O11  MOL A   1      14.088 -19.239  -6.081  1.00  0.00    -0.480 OA
BRANCH  18  19
ATOM     19 C12  MOL A   1      13.115 -19.064  -7.069  1.00  0.00     0.166 A 
ATOM     20 C13  MOL A   1      12.757 -17.773  -7.522  1.00  0.00     0.012 A 
ATOM     21 C21  MOL A   1      11.833 -17.647  -8.572  1.00  0.00    -0.054 A 
ATOM     22 C22  MOL A   1      11.237 -18.778  -9.131  1.00  0.00    -0.058 A 
ATOM     23 C23  MOL A   1      11.554 -20.048  -8.648  1.00  0.00    -0.016 A 
ATOM     24 C24  MOL A   1      12.493 -20.200  -7.610  1.00  0.00     0.161 A 
BRANCH  20  25
ATOM     25 C14  MOL A   1      13.342 -16.522  -6.905  1.00  0.00     0.028 C 
BRANCH  25  26
ATOM     26 N15  MOL A   1      14.034 -15.715  -7.932  1.00  0.00    -0.287 NA
ATOM     27 C16  MOL A   1      15.347 -16.286  -8.275  1.00  0.00     0.064 C 
ATOM     28 C17  MOL A   1      16.095 -15.100  -7.700  1.00  0.00     0.272 C 
ATOM     29 F18  MOL A   1      16.764 -14.350  -8.652  1.00  0.00    -0.204 F 
ATOM     30 F19  MOL A   1      16.863 -15.410  -6.589  1.00  0.00    -0.204 F 
ATOM     31 C20  MOL A   1      14.726 -14.552  -7.351  1.00  0.00     0.064 C 
ENDBRANCH  25  26
ENDBRANCH  20  25
BRANCH  24  32
ATOM     32 O25  MOL A   1      12.838 -21.459  -7.096  1.00  0.00    -0.493 OA
ATOM     33 C26  MOL A   1      13.577 -22.445  -7.809  1.00  0.00     0.078 C 
ENDBRANCH  24  32
ENDBRANCH  18  19
ENDBRANCH  17  18
ENDBRANCH  15  17
ENDBRANCH   8  14
ENDBRANCH   1   8
TORSDOF 10
ENDMDL
MODEL 461
REMARK VINA RESULT:    -6.934      5.565      8.791
REMARK INTER + INTRA:         -12.036
REMARK INTER:                 -10.824
REMARK INTRA:                  -1.213
REMARK UNBOUND:                -1.048
REMARK  10 active torsions:
REMARK  status: ('A' for Active; 'I' for Inactive)
REMARK   1   A    between atoms:  C27_1   and   C6_8  
REMARK   2   A    between atoms:  C6_8    and   C5_9  
REMARK   3   A    between atoms:  C5_9    and   C3_12 
REMARK   4   A    between atoms:  C6_8    and   N7_14 
REMARK   5   A    between atoms:  C8_15   and  C10_17 
REMARK   6   A    between atoms: C10_17   and  O11_18 
REMARK   7   A    between atoms: O11_18   and  C12_19 
REMARK   8   A    between atoms: C13_20   and  C14_25 
REMARK   9   A    between atoms: C14_25   and  N15_26 
REMARK   10  A    between atoms: C24_24   and  O25_32 
ROOT
ATOM      1 C27  MOL A   1      14.459 -17.931  -6.734  1.00  0.00    -0.024 A 
ATOM      2 C28  MOL A   1      14.022 -16.614  -6.965  1.00  0.00    -0.057 A 
ATOM      3 C29  MOL A   1      14.857 -15.530  -6.673  1.00  0.00    -0.061 A 
ATOM      4 C30  MOL A   1      16.134 -15.750  -6.149  1.00  0.00    -0.048 A 
ATOM      5 C31  MOL A   1      16.582 -17.055  -5.918  1.00  0.00     0.018 A 
ATOM      6 Br32 MOL A   1      18.338 -17.356  -5.222  1.00  0.00    -0.051 Br
ATOM      7 C33  MOL A   1      15.748 -18.141  -6.204  1.00  0.00    -0.043 A 
ENDROOT
BRANCH   1   8
ATOM      8  C6  MOL A   1      13.523 -19.094  -6.984  1.00  0.00     0.063 C 
BRANCH   8   9
ATOM      9  C5  MOL A   1      14.325 -20.403  -7.089  1.00  0.00     0.051 C 
BRANCH   9  12
ATOM     10  C1  MOL A   1      12.640 -23.833  -6.335  1.00  0.00     0.006 C 
ATOM     11  N2  MOL A   1      13.284 -22.727  -7.028  1.00  0.00    -0.359 N 
ATOM     12  C3  MOL A   1      13.652 -21.522  -6.348  1.00  0.00     0.222 C 
ATOM     13  O4  MOL A   1      13.415 -21.394  -5.116  1.00  0.00    -0.275 OA
ENDBRANCH   9  12
ENDBRANCH   8   9
BRANCH   8  14
ATOM     14  N7  MOL A   1      12.744 -18.866  -8.206  1.00  0.00    -0.346 N 
ATOM     15  C8  MOL A   1      11.350 -19.170  -8.297  1.00  0.00     0.258 C 
ATOM     16  O9  MOL A   1      10.742 -19.664  -7.311  1.00  0.00    -0.271 OA
BRANCH  15  17
ATOM     17 C10  MOL A   1      10.595 -18.893  -9.562  1.00  0.00     0.167 C 
BRANCH  17  18
ATOM     18 O11  MOL A   1      10.329 -20.107 -10.261  1.00  0.00    -0.480 OA
BRANCH  18  19
ATOM     19 C12  MOL A   1       9.098 -20.762 -10.166  1.00  0.00     0.166 A 
ATOM     20 C13  MOL A   1       7.892 -20.105 -10.503  1.00  0.00     0.012 A 
ATOM     21 C21  MOL A   1       6.686 -20.825 -10.469  1.00  0.00    -0.054 A 
ATOM     22 C22  MOL A   1       6.670 -22.159 -10.062  1.00  0.00    -0.058 A 
ATOM     23 C23  MOL A   1       7.854 -22.791  -9.682  1.00  0.00    -0.016 A 
ATOM     24 C24  MOL A   1       9.077 -22.096  -9.726  1.00  0.00     0.161 A 
BRANCH  20  25
ATOM     25 C14  MOL A   1       7.864 -18.645 -10.898  1.00  0.00     0.028 C 
BRANCH  25  26
ATOM     26 N15  MOL A   1       6.952 -17.889 -10.016  1.00  0.00    -0.287 NA
ATOM     27 C16  MOL A   1       7.419 -16.508  -9.809  1.00  0.00     0.064 C 
ATOM     28 C17  MOL A   1       7.684 -16.740  -8.335  1.00  0.00     0.272 C 
ATOM     29 F18  MOL A   1       6.847 -16.020  -7.500  1.00  0.00    -0.204 F 
ATOM     30 F19  MOL A   1       9.023 -16.663  -7.990  1.00  0.00    -0.204 F 
ATOM     31 C20  MOL A   1       7.209 -18.157  -8.590  1.00  0.00     0.064 C 
ENDBRANCH  25  26
ENDBRANCH  20  25
BRANCH  24  32
ATOM     32 O25  MOL A   1      10.288 -22.694  -9.352  1.00  0.00    -0.493 OA
ATOM     33 C26  MOL A   1      10.619 -24.059  -9.585  1.00  0.00     0.078 C 
ENDBRANCH  24  32
ENDBRANCH  18  19
ENDBRANCH  17  18
ENDBRANCH  15  17
ENDBRANCH   8  14
ENDBRANCH   1   8
TORSDOF 10
ENDMDL
MODEL 462
REMARK VINA RESULT:    -6.933      6.086      9.998
REMARK INTER + INTRA:         -12.034
REMARK INTER:                 -10.531
REMARK INTRA:                  -1.503
REMARK UNBOUND:                -1.048
REMARK  10 active torsions:
REMARK  status: ('A' for Active; 'I' for Inactive)
REMARK   1   A    between atoms:  C27_1   and   C6_8  
REMARK   2   A    between atoms:  C6_8    and   C5_9  
REMARK   3   A    between atoms:  C5_9    and   C3_12 
REMARK   4   A    between atoms:  C6_8    and   N7_14 
REMARK   5   A    between atoms:  C8_15   and  C10_17 
REMARK   6   A    between atoms: C10_17   and  O11_18 
REMARK   7   A    between atoms: O11_18   and  C12_19 
REMARK   8   A    between atoms: C13_20   and  C14_25 
REMARK   9   A    between atoms: C14_25   and  N15_26 
REMARK   10  A    between atoms: C24_24   and  O25_32 
ROOT
ATOM      1 C27  MOL A   1      15.370 -17.687  -4.248  1.00  0.00    -0.024 A 
ATOM      2 C28  MOL A   1      15.086 -16.461  -3.620  1.00  0.00    -0.057 A 
ATOM      3 C29  MOL A   1      14.865 -16.407  -2.240  1.00  0.00    -0.061 A 
ATOM      4 C30  MOL A   1      14.926 -17.575  -1.474  1.00  0.00    -0.048 A 
ATOM      5 C31  MOL A   1      15.212 -18.801  -2.086  1.00  0.00     0.018 A 
ATOM      6 Br32 MOL A   1      15.316 -20.395  -1.033  1.00  0.00    -0.051 Br
ATOM      7 C33  MOL A   1      15.427 -18.859  -3.466  1.00  0.00    -0.043 A 
ENDROOT
BRANCH   1   8
ATOM      8  C6  MOL A   1      15.535 -17.748  -5.751  1.00  0.00     0.063 C 
BRANCH   8   9
ATOM      9  C5  MOL A   1      16.240 -16.476  -6.256  1.00  0.00     0.051 C 
BRANCH   9  12
ATOM     10  C1  MOL A   1      18.082 -18.073  -9.294  1.00  0.00     0.006 C 
ATOM     11  N2  MOL A   1      17.533 -17.853  -7.964  1.00  0.00    -0.359 N 
ATOM     12  C3  MOL A   1      16.801 -16.668  -7.635  1.00  0.00     0.222 C 
ATOM     13  O4  MOL A   1      16.620 -15.775  -8.507  1.00  0.00    -0.275 OA
ENDBRANCH   9  12
ENDBRANCH   8   9
BRANCH   8  14
ATOM     14  N7  MOL A   1      14.229 -17.907  -6.400  1.00  0.00    -0.346 N 
ATOM     15  C8  MOL A   1      13.938 -18.990  -7.286  1.00  0.00     0.258 C 
ATOM     16  O9  MOL A   1      14.819 -19.851  -7.548  1.00  0.00    -0.271 OA
BRANCH  15  17
ATOM     17 C10  MOL A   1      12.577 -19.120  -7.903  1.00  0.00     0.167 C 
BRANCH  17  18
ATOM     18 O11  MOL A   1      11.838 -20.159  -7.265  1.00  0.00    -0.480 OA
BRANCH  18  19
ATOM     19 C12  MOL A   1      11.087 -21.087  -7.991  1.00  0.00     0.166 A 
ATOM     20 C13  MOL A   1       9.777 -20.785  -8.429  1.00  0.00     0.012 A 
ATOM     21 C21  MOL A   1       9.088 -21.717  -9.223  1.00  0.00    -0.054 A 
ATOM     22 C22  MOL A   1       9.668 -22.946  -9.537  1.00  0.00    -0.058 A 
ATOM     23 C23  MOL A   1      10.941 -23.262  -9.061  1.00  0.00    -0.016 A 
ATOM     24 C24  MOL A   1      11.658 -22.337  -8.280  1.00  0.00     0.161 A 
BRANCH  20  25
ATOM     25 C14  MOL A   1       9.095 -19.485  -8.064  1.00  0.00     0.028 C 
BRANCH  25  26
ATOM     26 N15  MOL A   1       8.423 -18.906  -9.246  1.00  0.00    -0.287 NA
ATOM     27 C16  MOL A   1       9.221 -17.823  -9.847  1.00  0.00     0.064 C 
ATOM     28 C17  MOL A   1       8.192 -16.769  -9.492  1.00  0.00     0.272 C 
ATOM     29 F18  MOL A   1       7.572 -16.205 -10.594  1.00  0.00    -0.204 F 
ATOM     30 F19  MOL A   1       8.640 -15.842  -8.565  1.00  0.00    -0.204 F 
ATOM     31 C20  MOL A   1       7.406 -17.908  -8.873  1.00  0.00     0.064 C 
ENDBRANCH  25  26
ENDBRANCH  20  25
BRANCH  24  32
ATOM     32 O25  MOL A   1      12.939 -22.617  -7.782  1.00  0.00    -0.493 OA
ATOM     33 C26  MOL A   1      13.232 -23.652  -6.850  1.00  0.00     0.078 C 
ENDBRANCH  24  32
ENDBRANCH  18  19
ENDBRANCH  17  18
ENDBRANCH  15  17
ENDBRANCH   8  14
ENDBRANCH   1   8
TORSDOF 10
ENDMDL
MODEL 463
REMARK VINA RESULT:    -6.931      6.553      9.666
REMARK INTER + INTRA:         -12.031
REMARK INTER:                 -10.285
REMARK INTRA:                  -1.747
REMARK UNBOUND:                -1.048
REMARK  10 active torsions:
REMARK  status: ('A' for Active; 'I' for Inactive)
REMARK   1   A    between atoms:  C27_1   and   C6_8  
REMARK   2   A    between atoms:  C6_8    and   C5_9  
REMARK   3   A    between atoms:  C5_9    and   C3_12 
REMARK   4   A    between atoms:  C6_8    and   N7_14 
REMARK   5   A    between atoms:  C8_15   and  C10_17 
REMARK   6   A    between atoms: C10_17   and  O11_18 
REMARK   7   A    between atoms: O11_18   and  C12_19 
REMARK   8   A    between atoms: C13_20   and  C14_25 
REMARK   9   A    between atoms: C14_25   and  N15_26 
REMARK   10  A    between atoms: C24_24   and  O25_32 
ROOT
ATOM      1 C27  MOL A   1      14.039 -21.754  -6.570  1.00  0.00    -0.024 A 
ATOM      2 C28  MOL A   1      14.373 -21.103  -5.369  1.00  0.00    -0.057 A 
ATOM      3 C29  MOL A   1      15.574 -20.394  -5.260  1.00  0.00    -0.061 A 
ATOM      4 C30  MOL A   1      16.452 -20.329  -6.345  1.00  0.00    -0.048 A 
ATOM      5 C31  MOL A   1      16.130 -20.970  -7.546  1.00  0.00     0.018 A 
ATOM      6 Br32 MOL A   1      17.322 -20.862  -9.039  1.00  0.00    -0.051 Br
ATOM      7 C33  MOL A   1      14.933 -21.684  -7.658  1.00  0.00    -0.043 A 
ENDROOT
BRANCH   1   8
ATOM      8  C6  MOL A   1      12.773 -22.579  -6.657  1.00  0.00     0.063 C 
BRANCH   8   9
ATOM      9  C5  MOL A   1      13.122 -24.078  -6.698  1.00  0.00     0.051 C 
BRANCH   9  12
ATOM     10  C1  MOL A   1      12.505 -25.532 -10.259  1.00  0.00     0.006 C 
ATOM     11  N2  MOL A   1      13.118 -24.862  -9.122  1.00  0.00    -0.359 N 
ATOM     12  C3  MOL A   1      12.457 -24.766  -7.855  1.00  0.00     0.222 C 
ATOM     13  O4  MOL A   1      11.309 -25.265  -7.702  1.00  0.00    -0.275 OA
ENDBRANCH   9  12
ENDBRANCH   8   9
BRANCH   8  14
ATOM     14  N7  MOL A   1      11.998 -22.197  -7.843  1.00  0.00    -0.346 N 
ATOM     15  C8  MOL A   1      11.014 -21.161  -7.817  1.00  0.00     0.258 C 
ATOM     16  O9  MOL A   1      10.773 -20.540  -6.748  1.00  0.00    -0.271 OA
BRANCH  15  17
ATOM     17 C10  MOL A   1      10.268 -20.792  -9.065  1.00  0.00     0.167 C 
BRANCH  17  18
ATOM     18 O11  MOL A   1      10.591 -19.462  -9.464  1.00  0.00    -0.480 OA
BRANCH  18  19
ATOM     19 C12  MOL A   1       9.696 -18.401  -9.301  1.00  0.00     0.166 A 
ATOM     20 C13  MOL A   1       9.931 -17.387  -8.344  1.00  0.00     0.012 A 
ATOM     21 C21  MOL A   1       9.046 -16.298  -8.269  1.00  0.00    -0.054 A 
ATOM     22 C22  MOL A   1       7.923 -16.240  -9.094  1.00  0.00    -0.058 A 
ATOM     23 C23  MOL A   1       7.666 -17.267 -10.002  1.00  0.00    -0.016 A 
ATOM     24 C24  MOL A   1       8.548 -18.358 -10.110  1.00  0.00     0.161 A 
BRANCH  20  25
ATOM     25 C14  MOL A   1      11.108 -17.443  -7.397  1.00  0.00     0.028 C 
BRANCH  25  26
ATOM     26 N15  MOL A   1      12.376 -17.286  -8.139  1.00  0.00    -0.287 NA
ATOM     27 C16  MOL A   1      13.357 -18.318  -7.761  1.00  0.00     0.064 C 
ATOM     28 C17  MOL A   1      14.293 -17.302  -7.137  1.00  0.00     0.272 C 
ATOM     29 F18  MOL A   1      15.492 -17.163  -7.814  1.00  0.00    -0.204 F 
ATOM     30 F19  MOL A   1      14.436 -17.443  -5.767  1.00  0.00    -0.204 F 
ATOM     31 C20  MOL A   1      13.254 -16.271  -7.531  1.00  0.00     0.064 C 
ENDBRANCH  25  26
ENDBRANCH  20  25
BRANCH  24  32
ATOM     32 O25  MOL A   1       8.326 -19.411 -11.009  1.00  0.00    -0.493 OA
ATOM     33 C26  MOL A   1       7.070 -20.053 -11.203  1.00  0.00     0.078 C 
ENDBRANCH  24  32
ENDBRANCH  18  19
ENDBRANCH  17  18
ENDBRANCH  15  17
ENDBRANCH   8  14
ENDBRANCH   1   8
TORSDOF 10
ENDMDL
MODEL 464
REMARK VINA RESULT:    -6.931      7.773     11.153
REMARK INTER + INTRA:         -12.030
REMARK INTER:                 -10.852
REMARK INTRA:                  -1.178
REMARK UNBOUND:                -1.048
REMARK  10 active torsions:
REMARK  status: ('A' for Active; 'I' for Inactive)
REMARK   1   A    between atoms:  C27_1   and   C6_8  
REMARK   2   A    between atoms:  C6_8    and   C5_9  
REMARK   3   A    between atoms:  C5_9    and   C3_12 
REMARK   4   A    between atoms:  C6_8    and   N7_14 
REMARK   5   A    between atoms:  C8_15   and  C10_17 
REMARK   6   A    between atoms: C10_17   and  O11_18 
REMARK   7   A    between atoms: O11_18   and  C12_19 
REMARK   8   A    between atoms: C13_20   and  C14_25 
REMARK   9   A    between atoms: C14_25   and  N15_26 
REMARK   10  A    between atoms: C24_24   and  O25_32 
ROOT
ATOM      1 C27  MOL A   1      16.905 -18.981  -4.124  1.00  0.00    -0.024 A 
ATOM      2 C28  MOL A   1      17.164 -17.630  -3.828  1.00  0.00    -0.057 A 
ATOM      3 C29  MOL A   1      16.755 -17.082  -2.607  1.00  0.00    -0.061 A 
ATOM      4 C30  MOL A   1      16.085 -17.875  -1.672  1.00  0.00    -0.048 A 
ATOM      5 C31  MOL A   1      15.824 -19.221  -1.952  1.00  0.00     0.018 A 
ATOM      6 Br32 MOL A   1      14.926 -20.311  -0.662  1.00  0.00    -0.051 Br
ATOM      7 C33  MOL A   1      16.227 -19.771  -3.173  1.00  0.00    -0.043 A 
ENDROOT
BRANCH   1   8
ATOM      8  C6  MOL A   1      17.286 -19.547  -5.475  1.00  0.00     0.063 C 
BRANCH   8   9
ATOM      9  C5  MOL A   1      18.581 -18.885  -5.977  1.00  0.00     0.051 C 
BRANCH   9  12
ATOM     10  C1  MOL A   1      20.134 -21.524  -8.385  1.00  0.00     0.006 C 
ATOM     11  N2  MOL A   1      19.647 -20.857  -7.186  1.00  0.00    -0.359 N 
ATOM     12  C3  MOL A   1      19.085 -19.542  -7.230  1.00  0.00     0.222 C 
ATOM     13  O4  MOL A   1      19.005 -18.924  -8.327  1.00  0.00    -0.275 OA
ENDBRANCH   9  12
ENDBRANCH   8   9
BRANCH   8  14
ATOM     14  N7  MOL A   1      16.196 -19.344  -6.436  1.00  0.00    -0.346 N 
ATOM     15  C8  MOL A   1      15.359 -20.412  -6.885  1.00  0.00     0.258 C 
ATOM     16  O9  MOL A   1      15.545 -21.585  -6.466  1.00  0.00    -0.271 OA
BRANCH  15  17
ATOM     17 C10  MOL A   1      14.242 -20.145  -7.849  1.00  0.00     0.167 C 
BRANCH  17  18
ATOM     18 O11  MOL A   1      14.217 -18.768  -8.215  1.00  0.00    -0.480 OA
BRANCH  18  19
ATOM     19 C12  MOL A   1      13.225 -17.897  -7.756  1.00  0.00     0.166 A 
ATOM     20 C13  MOL A   1      11.856 -18.154  -8.001  1.00  0.00     0.012 A 
ATOM     21 C21  MOL A   1      10.889 -17.294  -7.453  1.00  0.00    -0.054 A 
ATOM     22 C22  MOL A   1      11.274 -16.172  -6.719  1.00  0.00    -0.058 A 
ATOM     23 C23  MOL A   1      12.626 -15.893  -6.522  1.00  0.00    -0.016 A 
ATOM     24 C24  MOL A   1      13.612 -16.751  -7.043  1.00  0.00     0.161 A 
BRANCH  20  25
ATOM     25 C14  MOL A   1      11.404 -19.330  -8.837  1.00  0.00     0.028 C 
BRANCH  25  26
ATOM     26 N15  MOL A   1      10.056 -19.082  -9.388  1.00  0.00    -0.287 NA
ATOM     27 C16  MOL A   1       9.151 -20.217  -9.138  1.00  0.00     0.064 C 
ATOM     28 C17  MOL A   1       9.038 -20.547 -10.613  1.00  0.00     0.272 C 
ATOM     29 F18  MOL A   1       7.773 -20.338 -11.134  1.00  0.00    -0.204 F 
ATOM     30 F19  MOL A   1       9.591 -21.771 -10.955  1.00  0.00    -0.204 F 
ATOM     31 C20  MOL A   1       9.981 -19.380 -10.829  1.00  0.00     0.064 C 
ENDBRANCH  25  26
ENDBRANCH  20  25
BRANCH  24  32
ATOM     32 O25  MOL A   1      14.982 -16.505  -6.868  1.00  0.00    -0.493 OA
ATOM     33 C26  MOL A   1      15.522 -15.308  -6.317  1.00  0.00     0.078 C 
ENDBRANCH  24  32
ENDBRANCH  18  19
ENDBRANCH  17  18
ENDBRANCH  15  17
ENDBRANCH   8  14
ENDBRANCH   1   8
TORSDOF 10
ENDMDL
MODEL 465
REMARK VINA RESULT:    -6.930      7.491     12.296
REMARK INTER + INTRA:         -12.030
REMARK INTER:                 -10.717
REMARK INTRA:                  -1.313
REMARK UNBOUND:                -1.048
REMARK  10 active torsions:
REMARK  status: ('A' for Active; 'I' for Inactive)
REMARK   1   A    between atoms:  C27_1   and   C6_8  
REMARK   2   A    between atoms:  C6_8    and   C5_9  
REMARK   3   A    between atoms:  C5_9    and   C3_12 
REMARK   4   A    between atoms:  C6_8    and   N7_14 
REMARK   5   A    between atoms:  C8_15   and  C10_17 
REMARK   6   A    between atoms: C10_17   and  O11_18 
REMARK   7   A    between atoms: O11_18   and  C12_19 
REMARK   8   A    between atoms: C13_20   and  C14_25 
REMARK   9   A    between atoms: C14_25   and  N15_26 
REMARK   10  A    between atoms: C24_24   and  O25_32 
ROOT
ATOM      1 C27  MOL A   1      10.574 -17.970  -7.796  1.00  0.00    -0.024 A 
ATOM      2 C28  MOL A   1      10.228 -19.300  -7.497  1.00  0.00    -0.057 A 
ATOM      3 C29  MOL A   1       9.036 -19.848  -7.983  1.00  0.00    -0.061 A 
ATOM      4 C30  MOL A   1       8.179 -19.075  -8.771  1.00  0.00    -0.048 A 
ATOM      5 C31  MOL A   1       8.513 -17.751  -9.078  1.00  0.00     0.018 A 
ATOM      6 Br32 MOL A   1       7.350 -16.700 -10.175  1.00  0.00    -0.051 Br
ATOM      7 C33  MOL A   1       9.701 -17.198  -8.589  1.00  0.00    -0.043 A 
ENDROOT
BRANCH   1   8
ATOM      8  C6  MOL A   1      11.828 -17.363  -7.206  1.00  0.00     0.063 C 
BRANCH   8   9
ATOM      9  C5  MOL A   1      11.574 -15.893  -6.825  1.00  0.00     0.051 C 
BRANCH   9  12
ATOM     10  C1  MOL A   1      14.021 -14.501  -4.132  1.00  0.00     0.006 C 
ATOM     11  N2  MOL A   1      12.856 -15.092  -4.774  1.00  0.00    -0.359 N 
ATOM     12  C3  MOL A   1      12.786 -15.271  -6.193  1.00  0.00     0.222 C 
ATOM     13  O4  MOL A   1      13.747 -14.907  -6.924  1.00  0.00    -0.275 OA
ENDBRANCH   9  12
ENDBRANCH   8   9
BRANCH   8  14
ATOM     14  N7  MOL A   1      12.939 -17.465  -8.159  1.00  0.00    -0.346 N 
ATOM     15  C8  MOL A   1      13.832 -18.580  -8.183  1.00  0.00     0.258 C 
ATOM     16  O9  MOL A   1      13.691 -19.524  -7.361  1.00  0.00    -0.271 OA
BRANCH  15  17
ATOM     17 C10  MOL A   1      14.935 -18.646  -9.196  1.00  0.00     0.167 C 
BRANCH  17  18
ATOM     18 O11  MOL A   1      16.058 -17.883  -8.762  1.00  0.00    -0.480 OA
BRANCH  18  19
ATOM     19 C12  MOL A   1      17.317 -18.458  -8.572  1.00  0.00     0.166 A 
ATOM     20 C13  MOL A   1      17.712 -18.952  -7.307  1.00  0.00     0.012 A 
ATOM     21 C21  MOL A   1      18.955 -19.593  -7.180  1.00  0.00    -0.054 A 
ATOM     22 C22  MOL A   1      19.812 -19.700  -8.275  1.00  0.00    -0.058 A 
ATOM     23 C23  MOL A   1      19.442 -19.167  -9.510  1.00  0.00    -0.016 A 
ATOM     24 C24  MOL A   1      18.193 -18.538  -9.666  1.00  0.00     0.161 A 
BRANCH  20  25
ATOM     25 C14  MOL A   1      16.832 -18.807  -6.085  1.00  0.00     0.028 C 
BRANCH  25  26
ATOM     26 N15  MOL A   1      17.532 -18.042  -5.033  1.00  0.00    -0.287 NA
ATOM     27 C16  MOL A   1      17.216 -18.555  -3.689  1.00  0.00     0.064 C 
ATOM     28 C17  MOL A   1      16.493 -17.282  -3.293  1.00  0.00     0.272 C 
ATOM     29 F18  MOL A   1      17.131 -16.569  -2.293  1.00  0.00    -0.204 F 
ATOM     30 F19  MOL A   1      15.135 -17.455  -3.081  1.00  0.00    -0.204 F 
ATOM     31 C20  MOL A   1      16.827 -16.795  -4.690  1.00  0.00     0.064 C 
ENDBRANCH  25  26
ENDBRANCH  20  25
BRANCH  24  32
ATOM     32 O25  MOL A   1      17.783 -17.989 -10.890  1.00  0.00    -0.493 OA
ATOM     33 C26  MOL A   1      18.253 -18.419 -12.164  1.00  0.00     0.078 C 
ENDBRANCH  24  32
ENDBRANCH  18  19
ENDBRANCH  17  18
ENDBRANCH  15  17
ENDBRANCH   8  14
ENDBRANCH   1   8
TORSDOF 10
ENDMDL
MODEL 466
REMARK VINA RESULT:    -6.930      5.162      9.948
REMARK INTER + INTRA:         -12.030
REMARK INTER:                 -11.536
REMARK INTRA:                  -0.493
REMARK UNBOUND:                -1.048
REMARK  10 active torsions:
REMARK  status: ('A' for Active; 'I' for Inactive)
REMARK   1   A    between atoms:  C27_1   and   C6_8  
REMARK   2   A    between atoms:  C6_8    and   C5_9  
REMARK   3   A    between atoms:  C5_9    and   C3_12 
REMARK   4   A    between atoms:  C6_8    and   N7_14 
REMARK   5   A    between atoms:  C8_15   and  C10_17 
REMARK   6   A    between atoms: C10_17   and  O11_18 
REMARK   7   A    between atoms: O11_18   and  C12_19 
REMARK   8   A    between atoms: C13_20   and  C14_25 
REMARK   9   A    between atoms: C14_25   and  N15_26 
REMARK   10  A    between atoms: C24_24   and  O25_32 
ROOT
ATOM      1 C27  MOL A   1       8.444 -20.129  -9.128  1.00  0.00    -0.024 A 
ATOM      2 C28  MOL A   1       8.704 -21.322  -9.827  1.00  0.00    -0.057 A 
ATOM      3 C29  MOL A   1       7.829 -22.409  -9.721  1.00  0.00    -0.061 A 
ATOM      4 C30  MOL A   1       6.690 -22.317  -8.917  1.00  0.00    -0.048 A 
ATOM      5 C31  MOL A   1       6.418 -21.135  -8.219  1.00  0.00     0.018 A 
ATOM      6 Br32 MOL A   1       4.847 -21.002  -7.136  1.00  0.00    -0.051 Br
ATOM      7 C33  MOL A   1       7.293 -20.048  -8.318  1.00  0.00    -0.043 A 
ENDROOT
BRANCH   1   8
ATOM      8  C6  MOL A   1       9.432 -18.985  -9.190  1.00  0.00     0.063 C 
BRANCH   8   9
ATOM      9  C5  MOL A   1       9.480 -18.407 -10.617  1.00  0.00     0.051 C 
BRANCH   9  12
ATOM     10  C1  MOL A   1       6.431 -15.983 -10.619  1.00  0.00     0.006 C 
ATOM     11  N2  MOL A   1       7.686 -16.632 -10.270  1.00  0.00    -0.359 N 
ATOM     12  C3  MOL A   1       8.176 -17.766 -10.995  1.00  0.00     0.222 C 
ATOM     13  O4  MOL A   1       7.514 -18.233 -11.962  1.00  0.00    -0.275 OA
ENDBRANCH   9  12
ENDBRANCH   8   9
BRANCH   8  14
ATOM     14  N7  MOL A   1      10.763 -19.438  -8.772  1.00  0.00    -0.346 N 
ATOM     15  C8  MOL A   1      11.677 -18.595  -8.069  1.00  0.00     0.258 C 
ATOM     16  O9  MOL A   1      11.361 -17.407  -7.792  1.00  0.00    -0.271 OA
BRANCH  15  17
ATOM     17 C10  MOL A   1      13.016 -19.117  -7.642  1.00  0.00     0.167 C 
BRANCH  17  18
ATOM     18 O11  MOL A   1      13.752 -18.105  -6.959  1.00  0.00    -0.480 OA
BRANCH  18  19
ATOM     19 C12  MOL A   1      14.817 -17.429  -7.562  1.00  0.00     0.166 A 
ATOM     20 C13  MOL A   1      15.000 -16.040  -7.376  1.00  0.00     0.012 A 
ATOM     21 C21  MOL A   1      16.128 -15.417  -7.935  1.00  0.00    -0.054 A 
ATOM     22 C22  MOL A   1      17.032 -16.148  -8.705  1.00  0.00    -0.058 A 
ATOM     23 C23  MOL A   1      16.823 -17.509  -8.929  1.00  0.00    -0.016 A 
ATOM     24 C24  MOL A   1      15.711 -18.159  -8.363  1.00  0.00     0.161 A 
BRANCH  20  25
ATOM     25 C14  MOL A   1      14.013 -15.204  -6.592  1.00  0.00     0.028 C 
BRANCH  25  26
ATOM     26 N15  MOL A   1      13.982 -15.632  -5.179  1.00  0.00    -0.287 NA
ATOM     27 C16  MOL A   1      12.967 -14.892  -4.410  1.00  0.00     0.064 C 
ATOM     28 C17  MOL A   1      14.012 -14.204  -3.553  1.00  0.00     0.272 C 
ATOM     29 F18  MOL A   1      13.977 -14.584  -2.223  1.00  0.00    -0.204 F 
ATOM     30 F19  MOL A   1      14.076 -12.834  -3.744  1.00  0.00    -0.204 F 
ATOM     31 C20  MOL A   1      15.027 -14.975  -4.376  1.00  0.00     0.064 C 
ENDBRANCH  25  26
ENDBRANCH  20  25
BRANCH  24  32
ATOM     32 O25  MOL A   1      15.463 -19.525  -8.564  1.00  0.00    -0.493 OA
ATOM     33 C26  MOL A   1      16.429 -20.457  -9.038  1.00  0.00     0.078 C 
ENDBRANCH  24  32
ENDBRANCH  18  19
ENDBRANCH  17  18
ENDBRANCH  15  17
ENDBRANCH   8  14
ENDBRANCH   1   8
TORSDOF 10
ENDMDL
MODEL 467
REMARK VINA RESULT:    -6.929      6.476      9.520
REMARK INTER + INTRA:         -12.027
REMARK INTER:                 -10.619
REMARK INTRA:                  -1.409
REMARK UNBOUND:                -1.048
REMARK  10 active torsions:
REMARK  status: ('A' for Active; 'I' for Inactive)
REMARK   1   A    between atoms:  C27_1   and   C6_8  
REMARK   2   A    between atoms:  C6_8    and   C5_9  
REMARK   3   A    between atoms:  C5_9    and   C3_12 
REMARK   4   A    between atoms:  C6_8    and   N7_14 
REMARK   5   A    between atoms:  C8_15   and  C10_17 
REMARK   6   A    between atoms: C10_17   and  O11_18 
REMARK   7   A    between atoms: O11_18   and  C12_19 
REMARK   8   A    between atoms: C13_20   and  C14_25 
REMARK   9   A    between atoms: C14_25   and  N15_26 
REMARK   10  A    between atoms: C24_24   and  O25_32 
ROOT
ATOM      1 C27  MOL A   1      15.407 -20.840  -7.812  1.00  0.00    -0.024 A 
ATOM      2 C28  MOL A   1      15.503 -20.254  -9.088  1.00  0.00    -0.057 A 
ATOM      3 C29  MOL A   1      16.432 -19.237  -9.332  1.00  0.00    -0.061 A 
ATOM      4 C30  MOL A   1      17.273 -18.795  -8.307  1.00  0.00    -0.048 A 
ATOM      5 C31  MOL A   1      17.191 -19.372  -7.034  1.00  0.00     0.018 A 
ATOM      6 Br32 MOL A   1      18.358 -18.781  -5.638  1.00  0.00    -0.051 Br
ATOM      7 C33  MOL A   1      16.259 -20.385  -6.786  1.00  0.00    -0.043 A 
ENDROOT
BRANCH   1   8
ATOM      8  C6  MOL A   1      14.351 -21.888  -7.538  1.00  0.00     0.063 C 
BRANCH   8   9
ATOM      9  C5  MOL A   1      14.477 -23.042  -8.549  1.00  0.00     0.051 C 
BRANCH   9  12
ATOM     10  C1  MOL A   1      11.579 -25.545  -9.261  1.00  0.00     0.006 C 
ATOM     11  N2  MOL A   1      12.612 -24.534  -9.433  1.00  0.00    -0.359 N 
ATOM     12  C3  MOL A   1      13.412 -24.079  -8.337  1.00  0.00     0.222 C 
ATOM     13  O4  MOL A   1      13.229 -24.551  -7.182  1.00  0.00    -0.275 OA
ENDBRANCH   9  12
ENDBRANCH   8   9
BRANCH   8  14
ATOM     14  N7  MOL A   1      13.013 -21.290  -7.601  1.00  0.00    -0.346 N 
ATOM     15  C8  MOL A   1      12.278 -20.925  -6.431  1.00  0.00     0.258 C 
ATOM     16  O9  MOL A   1      12.767 -21.120  -5.287  1.00  0.00    -0.271 OA
BRANCH  15  17
ATOM     17 C10  MOL A   1      10.924 -20.292  -6.553  1.00  0.00     0.167 C 
BRANCH  17  18
ATOM     18 O11  MOL A   1      10.766 -19.696  -7.838  1.00  0.00    -0.480 OA
BRANCH  18  19
ATOM     19 C12  MOL A   1       9.856 -18.661  -8.069  1.00  0.00     0.166 A 
ATOM     20 C13  MOL A   1       8.570 -18.922  -8.595  1.00  0.00     0.012 A 
ATOM     21 C21  MOL A   1       7.659 -17.861  -8.736  1.00  0.00    -0.054 A 
ATOM     22 C22  MOL A   1       8.033 -16.559  -8.407  1.00  0.00    -0.058 A 
ATOM     23 C23  MOL A   1       9.319 -16.296  -7.935  1.00  0.00    -0.016 A 
ATOM     24 C24  MOL A   1      10.242 -17.345  -7.767  1.00  0.00     0.161 A 
BRANCH  20  25
ATOM     25 C14  MOL A   1       8.147 -20.313  -9.013  1.00  0.00     0.028 C 
BRANCH  25  26
ATOM     26 N15  MOL A   1       6.707 -20.337  -9.343  1.00  0.00    -0.287 NA
ATOM     27 C16  MOL A   1       6.079 -21.604  -8.932  1.00  0.00     0.064 C 
ATOM     28 C17  MOL A   1       5.800 -22.015 -10.364  1.00  0.00     0.272 C 
ATOM     29 F18  MOL A   1       4.453 -22.061 -10.677  1.00  0.00    -0.204 F 
ATOM     30 F19  MOL A   1       6.509 -23.134 -10.771  1.00  0.00    -0.204 F 
ATOM     31 C20  MOL A   1       6.465 -20.708 -10.748  1.00  0.00     0.064 C 
ENDBRANCH  25  26
ENDBRANCH  20  25
BRANCH  24  32
ATOM     32 O25  MOL A   1      11.545 -17.123  -7.296  1.00  0.00    -0.493 OA
ATOM     33 C26  MOL A   1      11.995 -15.903  -6.718  1.00  0.00     0.078 C 
ENDBRANCH  24  32
ENDBRANCH  18  19
ENDBRANCH  17  18
ENDBRANCH  15  17
ENDBRANCH   8  14
ENDBRANCH   1   8
TORSDOF 10
ENDMDL
MODEL 468
REMARK VINA RESULT:    -6.928      7.715     12.221
REMARK INTER + INTRA:         -12.026
REMARK INTER:                 -10.585
REMARK INTRA:                  -1.442
REMARK UNBOUND:                -1.048
REMARK  10 active torsions:
REMARK  status: ('A' for Active; 'I' for Inactive)
REMARK   1   A    between atoms:  C27_1   and   C6_8  
REMARK   2   A    between atoms:  C6_8    and   C5_9  
REMARK   3   A    between atoms:  C5_9    and   C3_12 
REMARK   4   A    between atoms:  C6_8    and   N7_14 
REMARK   5   A    between atoms:  C8_15   and  C10_17 
REMARK   6   A    between atoms: C10_17   and  O11_18 
REMARK   7   A    between atoms: O11_18   and  C12_19 
REMARK   8   A    between atoms: C13_20   and  C14_25 
REMARK   9   A    between atoms: C14_25   and  N15_26 
REMARK   10  A    between atoms: C24_24   and  O25_32 
ROOT
ATOM      1 C27  MOL A   1      10.133 -18.937  -9.436  1.00  0.00    -0.024 A 
ATOM      2 C28  MOL A   1       9.999 -18.980 -10.835  1.00  0.00    -0.057 A 
ATOM      3 C29  MOL A   1       8.866 -18.443 -11.455  1.00  0.00    -0.061 A 
ATOM      4 C30  MOL A   1       7.856 -17.858 -10.684  1.00  0.00    -0.048 A 
ATOM      5 C31  MOL A   1       7.979 -17.806  -9.291  1.00  0.00     0.018 A 
ATOM      6 Br32 MOL A   1       6.607 -16.987  -8.239  1.00  0.00    -0.051 Br
ATOM      7 C33  MOL A   1       9.108 -18.347  -8.668  1.00  0.00    -0.043 A 
ENDROOT
BRANCH   1   8
ATOM      8  C6  MOL A   1      11.327 -19.585  -8.769  1.00  0.00     0.063 C 
BRANCH   8   9
ATOM      9  C5  MOL A   1      10.864 -20.744  -7.868  1.00  0.00     0.051 C 
BRANCH   9  12
ATOM     10  C1  MOL A   1      12.449 -24.233  -8.565  1.00  0.00     0.006 C 
ATOM     11  N2  MOL A   1      11.515 -23.117  -8.524  1.00  0.00    -0.359 N 
ATOM     12  C3  MOL A   1      11.845 -21.880  -7.884  1.00  0.00     0.222 C 
ATOM     13  O4  MOL A   1      12.969 -21.735  -7.329  1.00  0.00    -0.275 OA
ENDBRANCH   9  12
ENDBRANCH   8   9
BRANCH   8  14
ATOM     14  N7  MOL A   1      12.075 -18.592  -7.990  1.00  0.00    -0.346 N 
ATOM     15  C8  MOL A   1      13.461 -18.324  -8.213  1.00  0.00     0.258 C 
ATOM     16  O9  MOL A   1      14.095 -18.956  -9.100  1.00  0.00    -0.271 OA
BRANCH  15  17
ATOM     17 C10  MOL A   1      14.171 -17.280  -7.406  1.00  0.00     0.167 C 
BRANCH  17  18
ATOM     18 O11  MOL A   1      14.678 -17.842  -6.198  1.00  0.00    -0.480 OA
BRANCH  18  19
ATOM     19 C12  MOL A   1      15.949 -17.527  -5.709  1.00  0.00     0.166 A 
ATOM     20 C13  MOL A   1      17.096 -18.225  -6.150  1.00  0.00     0.012 A 
ATOM     21 C21  MOL A   1      18.362 -17.823  -5.692  1.00  0.00    -0.054 A 
ATOM     22 C22  MOL A   1      18.484 -16.778  -4.777  1.00  0.00    -0.058 A 
ATOM     23 C23  MOL A   1      17.347 -16.122  -4.304  1.00  0.00    -0.016 A 
ATOM     24 C24  MOL A   1      16.070 -16.495  -4.764  1.00  0.00     0.161 A 
BRANCH  20  25
ATOM     25 C14  MOL A   1      16.998 -19.398  -7.101  1.00  0.00     0.028 C 
BRANCH  25  26
ATOM     26 N15  MOL A   1      17.514 -20.625  -6.461  1.00  0.00    -0.287 NA
ATOM     27 C16  MOL A   1      18.642 -21.197  -7.216  1.00  0.00     0.064 C 
ATOM     28 C17  MOL A   1      17.858 -22.440  -7.588  1.00  0.00     0.272 C 
ATOM     29 F18  MOL A   1      18.346 -23.599  -7.009  1.00  0.00    -0.204 F 
ATOM     30 F19  MOL A   1      17.604 -22.554  -8.945  1.00  0.00    -0.204 F 
ATOM     31 C20  MOL A   1      16.716 -21.812  -6.812  1.00  0.00     0.064 C 
ENDBRANCH  25  26
ENDBRANCH  20  25
BRANCH  24  32
ATOM     32 O25  MOL A   1      14.902 -15.862  -4.313  1.00  0.00    -0.493 OA
ATOM     33 C26  MOL A   1      14.869 -14.587  -3.681  1.00  0.00     0.078 C 
ENDBRANCH  24  32
ENDBRANCH  18  19
ENDBRANCH  17  18
ENDBRANCH  15  17
ENDBRANCH   8  14
ENDBRANCH   1   8
TORSDOF 10
ENDMDL
MODEL 469
REMARK VINA RESULT:    -6.927      8.561     12.142
REMARK INTER + INTRA:         -12.025
REMARK INTER:                 -10.864
REMARK INTRA:                  -1.160
REMARK UNBOUND:                -1.048
REMARK  10 active torsions:
REMARK  status: ('A' for Active; 'I' for Inactive)
REMARK   1   A    between atoms:  C27_1   and   C6_8  
REMARK   2   A    between atoms:  C6_8    and   C5_9  
REMARK   3   A    between atoms:  C5_9    and   C3_12 
REMARK   4   A    between atoms:  C6_8    and   N7_14 
REMARK   5   A    between atoms:  C8_15   and  C10_17 
REMARK   6   A    between atoms: C10_17   and  O11_18 
REMARK   7   A    between atoms: O11_18   and  C12_19 
REMARK   8   A    between atoms: C13_20   and  C14_25 
REMARK   9   A    between atoms: C14_25   and  N15_26 
REMARK   10  A    between atoms: C24_24   and  O25_32 
ROOT
ATOM      1 C27  MOL A   1      12.284 -18.308  -7.969  1.00  0.00    -0.024 A 
ATOM      2 C28  MOL A   1      11.996 -19.661  -7.713  1.00  0.00    -0.057 A 
ATOM      3 C29  MOL A   1      10.674 -20.119  -7.729  1.00  0.00    -0.061 A 
ATOM      4 C30  MOL A   1       9.628 -19.233  -7.999  1.00  0.00    -0.048 A 
ATOM      5 C31  MOL A   1       9.901 -17.885  -8.259  1.00  0.00     0.018 A 
ATOM      6 Br32 MOL A   1       8.470 -16.677  -8.651  1.00  0.00    -0.051 Br
ATOM      7 C33  MOL A   1      11.221 -17.422  -8.239  1.00  0.00    -0.043 A 
ENDROOT
BRANCH   1   8
ATOM      8  C6  MOL A   1      13.709 -17.806  -7.879  1.00  0.00     0.063 C 
BRANCH   8   9
ATOM      9  C5  MOL A   1      14.692 -18.983  -8.018  1.00  0.00     0.051 C 
BRANCH   9  12
ATOM     10  C1  MOL A   1      18.498 -18.955  -8.845  1.00  0.00     0.006 C 
ATOM     11  N2  MOL A   1      17.183 -19.369  -8.377  1.00  0.00    -0.359 N 
ATOM     12  C3  MOL A   1      16.036 -18.522  -8.502  1.00  0.00     0.222 C 
ATOM     13  O4  MOL A   1      16.148 -17.380  -9.025  1.00  0.00    -0.275 OA
ENDBRANCH   9  12
ENDBRANCH   8   9
BRANCH   8  14
ATOM     14  N7  MOL A   1      13.920 -17.104  -6.608  1.00  0.00    -0.346 N 
ATOM     15  C8  MOL A   1      14.153 -15.696  -6.537  1.00  0.00     0.258 C 
ATOM     16  O9  MOL A   1      14.193 -15.005  -7.590  1.00  0.00    -0.271 OA
BRANCH  15  17
ATOM     17 C10  MOL A   1      14.337 -15.024  -5.210  1.00  0.00     0.167 C 
BRANCH  17  18
ATOM     18 O11  MOL A   1      15.553 -15.450  -4.599  1.00  0.00    -0.480 OA
BRANCH  18  19
ATOM     19 C12  MOL A   1      15.592 -16.501  -3.680  1.00  0.00     0.166 A 
ATOM     20 C13  MOL A   1      14.908 -16.418  -2.445  1.00  0.00     0.012 A 
ATOM     21 C21  MOL A   1      14.909 -17.529  -1.585  1.00  0.00    -0.054 A 
ATOM     22 C22  MOL A   1      15.614 -18.684  -1.921  1.00  0.00    -0.058 A 
ATOM     23 C23  MOL A   1      16.329 -18.746  -3.117  1.00  0.00    -0.016 A 
ATOM     24 C24  MOL A   1      16.327 -17.653  -4.004  1.00  0.00     0.161 A 
BRANCH  20  25
ATOM     25 C14  MOL A   1      14.177 -15.163  -2.022  1.00  0.00     0.028 C 
BRANCH  25  26
ATOM     26 N15  MOL A   1      15.134 -14.144  -1.546  1.00  0.00    -0.287 NA
ATOM     27 C16  MOL A   1      16.305 -14.760  -0.899  1.00  0.00     0.064 C 
ATOM     28 C17  MOL A   1      15.946 -14.191   0.460  1.00  0.00     0.272 C 
ATOM     29 F18  MOL A   1      16.849 -13.250   0.924  1.00  0.00    -0.204 F 
ATOM     30 F19  MOL A   1      15.608 -15.155   1.396  1.00  0.00    -0.204 F 
ATOM     31 C20  MOL A   1      14.746 -13.584  -0.240  1.00  0.00     0.064 C 
ENDBRANCH  25  26
ENDBRANCH  20  25
BRANCH  24  32
ATOM     32 O25  MOL A   1      17.033 -17.675  -5.215  1.00  0.00    -0.493 OA
ATOM     33 C26  MOL A   1      18.342 -17.144  -5.394  1.00  0.00     0.078 C 
ENDBRANCH  24  32
ENDBRANCH  18  19
ENDBRANCH  17  18
ENDBRANCH  15  17
ENDBRANCH   8  14
ENDBRANCH   1   8
TORSDOF 10
ENDMDL
MODEL 470
REMARK VINA RESULT:    -6.925      6.324      9.510
REMARK INTER + INTRA:         -12.021
REMARK INTER:                 -10.890
REMARK INTRA:                  -1.131
REMARK UNBOUND:                -1.048
REMARK  10 active torsions:
REMARK  status: ('A' for Active; 'I' for Inactive)
REMARK   1   A    between atoms:  C27_1   and   C6_8  
REMARK   2   A    between atoms:  C6_8    and   C5_9  
REMARK   3   A    between atoms:  C5_9    and   C3_12 
REMARK   4   A    between atoms:  C6_8    and   N7_14 
REMARK   5   A    between atoms:  C8_15   and  C10_17 
REMARK   6   A    between atoms: C10_17   and  O11_18 
REMARK   7   A    between atoms: O11_18   and  C12_19 
REMARK   8   A    between atoms: C13_20   and  C14_25 
REMARK   9   A    between atoms: C14_25   and  N15_26 
REMARK   10  A    between atoms: C24_24   and  O25_32 
ROOT
ATOM      1 C27  MOL A   1      15.002 -19.800  -5.754  1.00  0.00    -0.024 A 
ATOM      2 C28  MOL A   1      15.224 -20.210  -4.426  1.00  0.00    -0.057 A 
ATOM      3 C29  MOL A   1      15.547 -19.272  -3.440  1.00  0.00    -0.061 A 
ATOM      4 C30  MOL A   1      15.653 -17.918  -3.769  1.00  0.00    -0.048 A 
ATOM      5 C31  MOL A   1      15.432 -17.496  -5.085  1.00  0.00     0.018 A 
ATOM      6 Br32 MOL A   1      15.556 -15.639  -5.529  1.00  0.00    -0.051 Br
ATOM      7 C33  MOL A   1      15.113 -18.432  -6.074  1.00  0.00    -0.043 A 
ENDROOT
BRANCH   1   8
ATOM      8  C6  MOL A   1      14.724 -20.829  -6.828  1.00  0.00     0.063 C 
BRANCH   8   9
ATOM      9  C5  MOL A   1      15.914 -20.911  -7.800  1.00  0.00     0.051 C 
BRANCH   9  12
ATOM     10  C1  MOL A   1      19.324 -22.732  -7.320  1.00  0.00     0.006 C 
ATOM     11  N2  MOL A   1      18.302 -21.796  -7.766  1.00  0.00    -0.359 N 
ATOM     12  C3  MOL A   1      16.942 -21.899  -7.330  1.00  0.00     0.222 C 
ATOM     13  O4  MOL A   1      16.599 -22.822  -6.542  1.00  0.00    -0.275 OA
ENDBRANCH   9  12
ENDBRANCH   8   9
BRANCH   8  14
ATOM     14  N7  MOL A   1      13.491 -20.492  -7.548  1.00  0.00    -0.346 N 
ATOM     15  C8  MOL A   1      12.343 -21.343  -7.548  1.00  0.00     0.258 C 
ATOM     16  O9  MOL A   1      12.363 -22.437  -6.923  1.00  0.00    -0.271 OA
BRANCH  15  17
ATOM     17 C10  MOL A   1      11.098 -20.938  -8.279  1.00  0.00     0.167 C 
BRANCH  17  18
ATOM     18 O11  MOL A   1      10.244 -20.179  -7.427  1.00  0.00    -0.480 OA
BRANCH  18  19
ATOM     19 C12  MOL A   1       9.594 -19.023  -7.867  1.00  0.00     0.166 A 
ATOM     20 C13  MOL A   1       8.261 -19.067  -8.337  1.00  0.00     0.012 A 
ATOM     21 C21  MOL A   1       7.621 -17.869  -8.696  1.00  0.00    -0.054 A 
ATOM     22 C22  MOL A   1       8.305 -16.655  -8.635  1.00  0.00    -0.058 A 
ATOM     23 C23  MOL A   1       9.636 -16.620  -8.219  1.00  0.00    -0.016 A 
ATOM     24 C24  MOL A   1      10.292 -17.805  -7.836  1.00  0.00     0.161 A 
BRANCH  20  25
ATOM     25 C14  MOL A   1       7.505 -20.371  -8.467  1.00  0.00     0.028 C 
BRANCH  25  26
ATOM     26 N15  MOL A   1       6.179 -20.140  -9.076  1.00  0.00    -0.287 NA
ATOM     27 C16  MOL A   1       5.126 -20.024  -8.054  1.00  0.00     0.064 C 
ATOM     28 C17  MOL A   1       4.445 -21.301  -8.507  1.00  0.00     0.272 C 
ATOM     29 F18  MOL A   1       3.193 -21.096  -9.060  1.00  0.00    -0.204 F 
ATOM     30 F19  MOL A   1       4.483 -22.317  -7.566  1.00  0.00    -0.204 F 
ATOM     31 C20  MOL A   1       5.554 -21.391  -9.537  1.00  0.00     0.064 C 
ENDBRANCH  25  26
ENDBRANCH  20  25
BRANCH  24  32
ATOM     32 O25  MOL A   1      11.629 -17.813  -7.413  1.00  0.00    -0.493 OA
ATOM     33 C26  MOL A   1      12.563 -16.769  -7.671  1.00  0.00     0.078 C 
ENDBRANCH  24  32
ENDBRANCH  18  19
ENDBRANCH  17  18
ENDBRANCH  15  17
ENDBRANCH   8  14
ENDBRANCH   1   8
TORSDOF 10
ENDMDL
MODEL 471
REMARK VINA RESULT:    -6.919      7.983     12.520
REMARK INTER + INTRA:         -12.012
REMARK INTER:                  -9.838
REMARK INTRA:                  -2.174
REMARK UNBOUND:                -1.048
REMARK  10 active torsions:
REMARK  status: ('A' for Active; 'I' for Inactive)
REMARK   1   A    between atoms:  C27_1   and   C6_8  
REMARK   2   A    between atoms:  C6_8    and   C5_9  
REMARK   3   A    between atoms:  C5_9    and   C3_12 
REMARK   4   A    between atoms:  C6_8    and   N7_14 
REMARK   5   A    between atoms:  C8_15   and  C10_17 
REMARK   6   A    between atoms: C10_17   and  O11_18 
REMARK   7   A    between atoms: O11_18   and  C12_19 
REMARK   8   A    between atoms: C13_20   and  C14_25 
REMARK   9   A    between atoms: C14_25   and  N15_26 
REMARK   10  A    between atoms: C24_24   and  O25_32 
ROOT
ATOM      1 C27  MOL A   1      12.110 -17.475  -8.094  1.00  0.00    -0.024 A 
ATOM      2 C28  MOL A   1      12.598 -18.088  -9.262  1.00  0.00    -0.057 A 
ATOM      3 C29  MOL A   1      11.712 -18.540 -10.247  1.00  0.00    -0.061 A 
ATOM      4 C30  MOL A   1      10.334 -18.385 -10.075  1.00  0.00    -0.048 A 
ATOM      5 C31  MOL A   1       9.836 -17.774  -8.918  1.00  0.00     0.018 A 
ATOM      6 Br32 MOL A   1       7.950 -17.542  -8.694  1.00  0.00    -0.051 Br
ATOM      7 C33  MOL A   1      10.718 -17.326  -7.930  1.00  0.00    -0.043 A 
ENDROOT
BRANCH   1   8
ATOM      8  C6  MOL A   1      13.070 -17.056  -7.002  1.00  0.00     0.063 C 
BRANCH   8   9
ATOM      9  C5  MOL A   1      12.966 -15.538  -6.762  1.00  0.00     0.051 C 
BRANCH   9  12
ATOM     10  C1  MOL A   1      14.937 -14.525  -3.559  1.00  0.00     0.006 C 
ATOM     11  N2  MOL A   1      14.611 -14.882  -4.932  1.00  0.00    -0.359 N 
ATOM     12  C3  MOL A   1      13.271 -15.184  -5.336  1.00  0.00     0.222 C 
ATOM     13  O4  MOL A   1      12.334 -15.150  -4.492  1.00  0.00    -0.275 OA
ENDBRANCH   9  12
ENDBRANCH   8   9
BRANCH   8  14
ATOM     14  N7  MOL A   1      14.443 -17.429  -7.360  1.00  0.00    -0.346 N 
ATOM     15  C8  MOL A   1      15.333 -18.064  -6.440  1.00  0.00     0.258 C 
ATOM     16  O9  MOL A   1      14.956 -18.318  -5.265  1.00  0.00    -0.271 OA
BRANCH  15  17
ATOM     17 C10  MOL A   1      16.718 -18.448  -6.867  1.00  0.00     0.167 C 
BRANCH  17  18
ATOM     18 O11  MOL A   1      16.668 -19.471  -7.859  1.00  0.00    -0.480 OA
BRANCH  18  19
ATOM     19 C12  MOL A   1      17.395 -20.659  -7.735  1.00  0.00     0.166 A 
ATOM     20 C13  MOL A   1      16.886 -21.754  -7.000  1.00  0.00     0.012 A 
ATOM     21 C21  MOL A   1      17.614 -22.955  -6.969  1.00  0.00    -0.054 A 
ATOM     22 C22  MOL A   1      18.846 -23.054  -7.614  1.00  0.00    -0.058 A 
ATOM     23 C23  MOL A   1      19.370 -21.956  -8.297  1.00  0.00    -0.016 A 
ATOM     24 C24  MOL A   1      18.650 -20.748  -8.359  1.00  0.00     0.161 A 
BRANCH  20  25
ATOM     25 C14  MOL A   1      15.579 -21.667  -6.244  1.00  0.00     0.028 C 
BRANCH  25  26
ATOM     26 N15  MOL A   1      14.478 -22.235  -7.050  1.00  0.00    -0.287 NA
ATOM     27 C16  MOL A   1      13.805 -21.199  -7.852  1.00  0.00     0.064 C 
ATOM     28 C17  MOL A   1      12.508 -21.340  -7.079  1.00  0.00     0.272 C 
ATOM     29 F18  MOL A   1      11.465 -21.851  -7.831  1.00  0.00    -0.204 F 
ATOM     30 F19  MOL A   1      12.171 -20.214  -6.345  1.00  0.00    -0.204 F 
ATOM     31 C20  MOL A   1      13.240 -22.391  -6.267  1.00  0.00     0.064 C 
ENDBRANCH  25  26
ENDBRANCH  20  25
BRANCH  24  32
ATOM     32 O25  MOL A   1      19.141 -19.621  -9.034  1.00  0.00    -0.493 OA
ATOM     33 C26  MOL A   1      20.293 -19.622  -9.870  1.00  0.00     0.078 C 
ENDBRANCH  24  32
ENDBRANCH  18  19
ENDBRANCH  17  18
ENDBRANCH  15  17
ENDBRANCH   8  14
ENDBRANCH   1   8
TORSDOF 10
ENDMDL
MODEL 472
REMARK VINA RESULT:    -6.918      7.611     11.117
REMARK INTER + INTRA:         -12.010
REMARK INTER:                 -10.584
REMARK INTRA:                  -1.427
REMARK UNBOUND:                -1.048
REMARK  10 active torsions:
REMARK  status: ('A' for Active; 'I' for Inactive)
REMARK   1   A    between atoms:  C27_1   and   C6_8  
REMARK   2   A    between atoms:  C6_8    and   C5_9  
REMARK   3   A    between atoms:  C5_9    and   C3_12 
REMARK   4   A    between atoms:  C6_8    and   N7_14 
REMARK   5   A    between atoms:  C8_15   and  C10_17 
REMARK   6   A    between atoms: C10_17   and  O11_18 
REMARK   7   A    between atoms: O11_18   and  C12_19 
REMARK   8   A    between atoms: C13_20   and  C14_25 
REMARK   9   A    between atoms: C14_25   and  N15_26 
REMARK   10  A    between atoms: C24_24   and  O25_32 
ROOT
ATOM      1 C27  MOL A   1      18.010 -19.174  -8.913  1.00  0.00    -0.024 A 
ATOM      2 C28  MOL A   1      19.172 -19.955  -9.052  1.00  0.00    -0.057 A 
ATOM      3 C29  MOL A   1      20.064 -20.092  -7.983  1.00  0.00    -0.061 A 
ATOM      4 C30  MOL A   1      19.807 -19.452  -6.768  1.00  0.00    -0.048 A 
ATOM      5 C31  MOL A   1      18.653 -18.675  -6.615  1.00  0.00     0.018 A 
ATOM      6 Br32 MOL A   1      18.290 -17.817  -4.944  1.00  0.00    -0.051 Br
ATOM      7 C33  MOL A   1      17.761 -18.531  -7.683  1.00  0.00    -0.043 A 
ENDROOT
BRANCH   1   8
ATOM      8  C6  MOL A   1      17.088 -18.972 -10.096  1.00  0.00     0.063 C 
BRANCH   8   9
ATOM      9  C5  MOL A   1      17.510 -17.720 -10.885  1.00  0.00     0.051 C 
BRANCH   9  12
ATOM     10  C1  MOL A   1      18.538 -19.695 -14.082  1.00  0.00     0.006 C 
ATOM     11  N2  MOL A   1      18.264 -19.346 -12.695  1.00  0.00    -0.359 N 
ATOM     12  C3  MOL A   1      17.793 -18.046 -12.323  1.00  0.00     0.222 C 
ATOM     13  O4  MOL A   1      17.609 -17.164 -13.206  1.00  0.00    -0.275 OA
ENDBRANCH   9  12
ENDBRANCH   8   9
BRANCH   8  14
ATOM     14  N7  MOL A   1      15.698 -18.852  -9.642  1.00  0.00    -0.346 N 
ATOM     15  C8  MOL A   1      14.968 -19.955  -9.100  1.00  0.00     0.258 C 
ATOM     16  O9  MOL A   1      15.508 -21.089  -9.006  1.00  0.00    -0.271 OA
BRANCH  15  17
ATOM     17 C10  MOL A   1      13.557 -19.771  -8.627  1.00  0.00     0.167 C 
BRANCH  17  18
ATOM     18 O11  MOL A   1      12.987 -18.597  -9.201  1.00  0.00    -0.480 OA
BRANCH  18  19
ATOM     19 C12  MOL A   1      11.930 -17.914  -8.594  1.00  0.00     0.166 A 
ATOM     20 C13  MOL A   1      12.145 -17.086  -7.468  1.00  0.00     0.012 A 
ATOM     21 C21  MOL A   1      11.069 -16.356  -6.939  1.00  0.00    -0.054 A 
ATOM     22 C22  MOL A   1       9.791 -16.481  -7.485  1.00  0.00    -0.058 A 
ATOM     23 C23  MOL A   1       9.571 -17.336  -8.565  1.00  0.00    -0.016 A 
ATOM     24 C24  MOL A   1      10.639 -18.063  -9.125  1.00  0.00     0.161 A 
BRANCH  20  25
ATOM     25 C14  MOL A   1      13.505 -16.967  -6.815  1.00  0.00     0.028 C 
BRANCH  25  26
ATOM     26 N15  MOL A   1      13.972 -15.566  -6.850  1.00  0.00    -0.287 NA
ATOM     27 C16  MOL A   1      14.427 -15.180  -8.197  1.00  0.00     0.064 C 
ATOM     28 C17  MOL A   1      15.865 -15.017  -7.745  1.00  0.00     0.272 C 
ATOM     29 F18  MOL A   1      16.318 -13.711  -7.794  1.00  0.00    -0.204 F 
ATOM     30 F19  MOL A   1      16.734 -15.935  -8.311  1.00  0.00    -0.204 F 
ATOM     31 C20  MOL A   1      15.361 -15.431  -6.376  1.00  0.00     0.064 C 
ENDBRANCH  25  26
ENDBRANCH  20  25
BRANCH  24  32
ATOM     32 O25  MOL A   1      10.460 -18.934 -10.209  1.00  0.00    -0.493 OA
ATOM     33 C26  MOL A   1       9.311 -18.948 -11.050  1.00  0.00     0.078 C 
ENDBRANCH  24  32
ENDBRANCH  18  19
ENDBRANCH  17  18
ENDBRANCH  15  17
ENDBRANCH   8  14
ENDBRANCH   1   8
TORSDOF 10
ENDMDL
MODEL 473
REMARK VINA RESULT:    -6.916     11.432     13.210
REMARK INTER + INTRA:         -12.008
REMARK INTER:                 -10.074
REMARK INTRA:                  -1.934
REMARK UNBOUND:                -1.048
REMARK  10 active torsions:
REMARK  status: ('A' for Active; 'I' for Inactive)
REMARK   1   A    between atoms:  C27_1   and   C6_8  
REMARK   2   A    between atoms:  C6_8    and   C5_9  
REMARK   3   A    between atoms:  C5_9    and   C3_12 
REMARK   4   A    between atoms:  C6_8    and   N7_14 
REMARK   5   A    between atoms:  C8_15   and  C10_17 
REMARK   6   A    between atoms: C10_17   and  O11_18 
REMARK   7   A    between atoms: O11_18   and  C12_19 
REMARK   8   A    between atoms: C13_20   and  C14_25 
REMARK   9   A    between atoms: C14_25   and  N15_26 
REMARK   10  A    between atoms: C24_24   and  O25_32 
ROOT
ATOM      1 C27  MOL A   1      16.117 -18.056  -6.585  1.00  0.00    -0.024 A 
ATOM      2 C28  MOL A   1      17.083 -17.367  -7.341  1.00  0.00    -0.057 A 
ATOM      3 C29  MOL A   1      16.820 -16.078  -7.819  1.00  0.00    -0.061 A 
ATOM      4 C30  MOL A   1      15.593 -15.466  -7.547  1.00  0.00    -0.048 A 
ATOM      5 C31  MOL A   1      14.625 -16.140  -6.793  1.00  0.00     0.018 A 
ATOM      6 Br32 MOL A   1      12.955 -15.293  -6.404  1.00  0.00    -0.051 Br
ATOM      7 C33  MOL A   1      14.882 -17.430  -6.319  1.00  0.00    -0.043 A 
ENDROOT
BRANCH   1   8
ATOM      8  C6  MOL A   1      16.381 -19.477  -6.135  1.00  0.00     0.063 C 
BRANCH   8   9
ATOM      9  C5  MOL A   1      16.173 -20.450  -7.310  1.00  0.00     0.051 C 
BRANCH   9  12
ATOM     10  C1  MOL A   1      19.722 -21.588  -8.441  1.00  0.00     0.006 C 
ATOM     11  N2  MOL A   1      18.529 -20.784  -8.216  1.00  0.00    -0.359 N 
ATOM     12  C3  MOL A   1      17.384 -21.308  -7.535  1.00  0.00     0.222 C 
ATOM     13  O4  MOL A   1      17.386 -22.497  -7.116  1.00  0.00    -0.275 OA
ENDBRANCH   9  12
ENDBRANCH   8   9
BRANCH   8  14
ATOM     14  N7  MOL A   1      15.502 -19.826  -5.013  1.00  0.00    -0.346 N 
ATOM     15  C8  MOL A   1      15.909 -19.699  -3.649  1.00  0.00     0.258 C 
ATOM     16  O9  MOL A   1      17.064 -19.284  -3.367  1.00  0.00    -0.271 OA
BRANCH  15  17
ATOM     17 C10  MOL A   1      14.961 -20.045  -2.540  1.00  0.00     0.167 C 
BRANCH  17  18
ATOM     18 O11  MOL A   1      15.534 -19.721  -1.275  1.00  0.00    -0.480 OA
BRANCH  18  19
ATOM     19 C12  MOL A   1      14.808 -19.063  -0.279  1.00  0.00     0.166 A 
ATOM     20 C13  MOL A   1      14.650 -17.658  -0.297  1.00  0.00     0.012 A 
ATOM     21 C21  MOL A   1      13.846 -17.047   0.679  1.00  0.00    -0.054 A 
ATOM     22 C22  MOL A   1      13.250 -17.809   1.684  1.00  0.00    -0.058 A 
ATOM     23 C23  MOL A   1      13.448 -19.189   1.729  1.00  0.00    -0.016 A 
ATOM     24 C24  MOL A   1      14.233 -19.826   0.750  1.00  0.00     0.161 A 
BRANCH  20  25
ATOM     25 C14  MOL A   1      15.324 -16.794  -1.339  1.00  0.00     0.028 C 
BRANCH  25  26
ATOM     26 N15  MOL A   1      14.556 -15.551  -1.554  1.00  0.00    -0.287 NA
ATOM     27 C16  MOL A   1      14.041 -15.462  -2.931  1.00  0.00     0.064 C 
ATOM     28 C17  MOL A   1      14.916 -14.268  -3.259  1.00  0.00     0.272 C 
ATOM     29 F18  MOL A   1      14.203 -13.103  -3.482  1.00  0.00    -0.204 F 
ATOM     30 F19  MOL A   1      15.879 -14.529  -4.219  1.00  0.00    -0.204 F 
ATOM     31 C20  MOL A   1      15.430 -14.400  -1.839  1.00  0.00     0.064 C 
ENDBRANCH  25  26
ENDBRANCH  20  25
BRANCH  24  32
ATOM     32 O25  MOL A   1      14.458 -21.210   0.760  1.00  0.00    -0.493 OA
ATOM     33 C26  MOL A   1      13.444 -22.193   0.578  1.00  0.00     0.078 C 
ENDBRANCH  24  32
ENDBRANCH  18  19
ENDBRANCH  17  18
ENDBRANCH  15  17
ENDBRANCH   8  14
ENDBRANCH   1   8
TORSDOF 10
ENDMDL
MODEL 474
REMARK VINA RESULT:    -6.915      6.117     10.576
REMARK INTER + INTRA:         -12.006
REMARK INTER:                 -11.697
REMARK INTRA:                  -0.309
REMARK UNBOUND:                -1.048
REMARK  10 active torsions:
REMARK  status: ('A' for Active; 'I' for Inactive)
REMARK   1   A    between atoms:  C27_1   and   C6_8  
REMARK   2   A    between atoms:  C6_8    and   C5_9  
REMARK   3   A    between atoms:  C5_9    and   C3_12 
REMARK   4   A    between atoms:  C6_8    and   N7_14 
REMARK   5   A    between atoms:  C8_15   and  C10_17 
REMARK   6   A    between atoms: C10_17   and  O11_18 
REMARK   7   A    between atoms: O11_18   and  C12_19 
REMARK   8   A    between atoms: C13_20   and  C14_25 
REMARK   9   A    between atoms: C14_25   and  N15_26 
REMARK   10  A    between atoms: C24_24   and  O25_32 
ROOT
ATOM      1 C27  MOL A   1       9.414 -18.602  -9.562  1.00  0.00    -0.024 A 
ATOM      2 C28  MOL A   1       9.427 -17.753  -8.441  1.00  0.00    -0.057 A 
ATOM      3 C29  MOL A   1       8.622 -16.609  -8.411  1.00  0.00    -0.061 A 
ATOM      4 C30  MOL A   1       7.798 -16.303  -9.497  1.00  0.00    -0.048 A 
ATOM      5 C31  MOL A   1       7.773 -17.141 -10.617  1.00  0.00     0.018 A 
ATOM      6 Br32 MOL A   1       6.629 -16.733 -12.095  1.00  0.00    -0.051 Br
ATOM      7 C33  MOL A   1       8.581 -18.283 -10.653  1.00  0.00    -0.043 A 
ENDROOT
BRANCH   1   8
ATOM      8  C6  MOL A   1      10.342 -19.797  -9.617  1.00  0.00     0.063 C 
BRANCH   8   9
ATOM      9  C5  MOL A   1       9.693 -21.001  -8.910  1.00  0.00     0.051 C 
BRANCH   9  12
ATOM     10  C1  MOL A   1       6.637 -22.665 -10.661  1.00  0.00     0.006 C 
ATOM     11  N2  MOL A   1       7.454 -21.882  -9.745  1.00  0.00    -0.359 N 
ATOM     12  C3  MOL A   1       8.879 -21.827  -9.864  1.00  0.00     0.222 C 
ATOM     13  O4  MOL A   1       9.463 -22.472 -10.778  1.00  0.00    -0.275 OA
ENDBRANCH   9  12
ENDBRANCH   8   9
BRANCH   8  14
ATOM     14  N7  MOL A   1      11.631 -19.469  -9.000  1.00  0.00    -0.346 N 
ATOM     15  C8  MOL A   1      11.938 -19.792  -7.642  1.00  0.00     0.258 C 
ATOM     16  O9  MOL A   1      11.085 -20.372  -6.918  1.00  0.00    -0.271 OA
BRANCH  15  17
ATOM     17 C10  MOL A   1      13.281 -19.456  -7.067  1.00  0.00     0.167 C 
BRANCH  17  18
ATOM     18 O11  MOL A   1      14.252 -19.338  -8.105  1.00  0.00    -0.480 OA
BRANCH  18  19
ATOM     19 C12  MOL A   1      15.596 -19.066  -7.835  1.00  0.00     0.166 A 
ATOM     20 C13  MOL A   1      16.073 -17.737  -7.767  1.00  0.00     0.012 A 
ATOM     21 C21  MOL A   1      17.414 -17.508  -7.415  1.00  0.00    -0.054 A 
ATOM     22 C22  MOL A   1      18.278 -18.578  -7.183  1.00  0.00    -0.058 A 
ATOM     23 C23  MOL A   1      17.817 -19.889  -7.300  1.00  0.00    -0.016 A 
ATOM     24 C24  MOL A   1      16.473 -20.144  -7.632  1.00  0.00     0.161 A 
BRANCH  20  25
ATOM     25 C14  MOL A   1      15.180 -16.553  -8.064  1.00  0.00     0.028 C 
BRANCH  25  26
ATOM     26 N15  MOL A   1      15.314 -15.528  -7.009  1.00  0.00    -0.287 NA
ATOM     27 C16  MOL A   1      14.518 -15.868  -5.818  1.00  0.00     0.064 C 
ATOM     28 C17  MOL A   1      13.589 -14.685  -6.011  1.00  0.00     0.272 C 
ATOM     29 F18  MOL A   1      13.693 -13.729  -5.016  1.00  0.00    -0.204 F 
ATOM     30 F19  MOL A   1      12.285 -15.043  -6.311  1.00  0.00    -0.204 F 
ATOM     31 C20  MOL A   1      14.426 -14.375  -7.237  1.00  0.00     0.064 C 
ENDBRANCH  25  26
ENDBRANCH  20  25
BRANCH  24  32
ATOM     32 O25  MOL A   1      15.971 -21.447  -7.760  1.00  0.00    -0.493 OA
ATOM     33 C26  MOL A   1      16.559 -22.461  -8.568  1.00  0.00     0.078 C 
ENDBRANCH  24  32
ENDBRANCH  18  19
ENDBRANCH  17  18
ENDBRANCH  15  17
ENDBRANCH   8  14
ENDBRANCH   1   8
TORSDOF 10
ENDMDL
MODEL 475
REMARK VINA RESULT:    -6.914      5.871      9.664
REMARK INTER + INTRA:         -12.004
REMARK INTER:                 -10.664
REMARK INTRA:                  -1.340
REMARK UNBOUND:                -1.048
REMARK  10 active torsions:
REMARK  status: ('A' for Active; 'I' for Inactive)
REMARK   1   A    between atoms:  C27_1   and   C6_8  
REMARK   2   A    between atoms:  C6_8    and   C5_9  
REMARK   3   A    between atoms:  C5_9    and   C3_12 
REMARK   4   A    between atoms:  C6_8    and   N7_14 
REMARK   5   A    between atoms:  C8_15   and  C10_17 
REMARK   6   A    between atoms: C10_17   and  O11_18 
REMARK   7   A    between atoms: O11_18   and  C12_19 
REMARK   8   A    between atoms: C13_20   and  C14_25 
REMARK   9   A    between atoms: C14_25   and  N15_26 
REMARK   10  A    between atoms: C24_24   and  O25_32 
ROOT
ATOM      1 C27  MOL A   1      15.318 -18.831  -4.838  1.00  0.00    -0.024 A 
ATOM      2 C28  MOL A   1      15.230 -19.842  -3.864  1.00  0.00    -0.057 A 
ATOM      3 C29  MOL A   1      15.636 -19.594  -2.548  1.00  0.00    -0.061 A 
ATOM      4 C30  MOL A   1      16.133 -18.337  -2.193  1.00  0.00    -0.048 A 
ATOM      5 C31  MOL A   1      16.222 -17.322  -3.151  1.00  0.00     0.018 A 
ATOM      6 Br32 MOL A   1      16.883 -15.595  -2.659  1.00  0.00    -0.051 Br
ATOM      7 C33  MOL A   1      15.823 -17.568  -4.469  1.00  0.00    -0.043 A 
ENDROOT
BRANCH   1   8
ATOM      8  C6  MOL A   1      14.945 -19.129  -6.274  1.00  0.00     0.063 C 
BRANCH   8   9
ATOM      9  C5  MOL A   1      15.289 -17.924  -7.169  1.00  0.00     0.051 C 
BRANCH   9  12
ATOM     10  C1  MOL A   1      17.910 -19.961  -9.207  1.00  0.00     0.006 C 
ATOM     11  N2  MOL A   1      16.916 -19.582  -8.213  1.00  0.00    -0.359 N 
ATOM     12  C3  MOL A   1      16.319 -18.281  -8.201  1.00  0.00     0.222 C 
ATOM     13  O4  MOL A   1      16.655 -17.423  -9.063  1.00  0.00    -0.275 OA
ENDBRANCH   9  12
ENDBRANCH   8   9
BRANCH   8  14
ATOM     14  N7  MOL A   1      13.518 -19.455  -6.372  1.00  0.00    -0.346 N 
ATOM     15  C8  MOL A   1      13.014 -20.438  -7.279  1.00  0.00     0.258 C 
ATOM     16  O9  MOL A   1      13.799 -21.059  -8.043  1.00  0.00    -0.271 OA
BRANCH  15  17
ATOM     17 C10  MOL A   1      11.548 -20.751  -7.319  1.00  0.00     0.167 C 
BRANCH  17  18
ATOM     18 O11  MOL A   1      11.106 -20.894  -8.667  1.00  0.00    -0.480 OA
BRANCH  18  19
ATOM     19 C12  MOL A   1       9.935 -21.584  -8.994  1.00  0.00     0.166 A 
ATOM     20 C13  MOL A   1       8.677 -20.940  -8.969  1.00  0.00     0.012 A 
ATOM     21 C21  MOL A   1       7.536 -21.649  -9.381  1.00  0.00    -0.054 A 
ATOM     22 C22  MOL A   1       7.634 -22.987  -9.764  1.00  0.00    -0.058 A 
ATOM     23 C23  MOL A   1       8.869 -23.635  -9.739  1.00  0.00    -0.016 A 
ATOM     24 C24  MOL A   1      10.029 -22.939  -9.350  1.00  0.00     0.161 A 
BRANCH  20  25
ATOM     25 C14  MOL A   1       8.524 -19.507  -8.509  1.00  0.00     0.028 C 
BRANCH  25  26
ATOM     26 N15  MOL A   1       7.757 -18.726  -9.502  1.00  0.00    -0.287 NA
ATOM     27 C16  MOL A   1       8.608 -17.741 -10.190  1.00  0.00     0.064 C 
ATOM     28 C17  MOL A   1       7.866 -16.567  -9.583  1.00  0.00     0.272 C 
ATOM     29 F18  MOL A   1       7.161 -15.816 -10.508  1.00  0.00    -0.204 F 
ATOM     30 F19  MOL A   1       8.636 -15.809  -8.715  1.00  0.00    -0.204 F 
ATOM     31 C20  MOL A   1       7.020 -17.611  -8.882  1.00  0.00     0.064 C 
ENDBRANCH  25  26
ENDBRANCH  20  25
BRANCH  24  32
ATOM     32 O25  MOL A   1      11.289 -23.554  -9.310  1.00  0.00    -0.493 OA
ATOM     33 C26  MOL A   1      11.803 -24.266  -8.190  1.00  0.00     0.078 C 
ENDBRANCH  24  32
ENDBRANCH  18  19
ENDBRANCH  17  18
ENDBRANCH  15  17
ENDBRANCH   8  14
ENDBRANCH   1   8
TORSDOF 10
ENDMDL
MODEL 476
REMARK VINA RESULT:    -6.913      6.700      9.992
REMARK INTER + INTRA:         -12.003
REMARK INTER:                 -10.707
REMARK INTRA:                  -1.296
REMARK UNBOUND:                -1.048
REMARK  10 active torsions:
REMARK  status: ('A' for Active; 'I' for Inactive)
REMARK   1   A    between atoms:  C27_1   and   C6_8  
REMARK   2   A    between atoms:  C6_8    and   C5_9  
REMARK   3   A    between atoms:  C5_9    and   C3_12 
REMARK   4   A    between atoms:  C6_8    and   N7_14 
REMARK   5   A    between atoms:  C8_15   and  C10_17 
REMARK   6   A    between atoms: C10_17   and  O11_18 
REMARK   7   A    between atoms: O11_18   and  C12_19 
REMARK   8   A    between atoms: C13_20   and  C14_25 
REMARK   9   A    between atoms: C14_25   and  N15_26 
REMARK   10  A    between atoms: C24_24   and  O25_32 
ROOT
ATOM      1 C27  MOL A   1      15.644 -17.103  -5.887  1.00  0.00    -0.024 A 
ATOM      2 C28  MOL A   1      15.402 -15.725  -6.028  1.00  0.00    -0.057 A 
ATOM      3 C29  MOL A   1      15.125 -14.937  -4.905  1.00  0.00    -0.061 A 
ATOM      4 C30  MOL A   1      15.087 -15.516  -3.634  1.00  0.00    -0.048 A 
ATOM      5 C31  MOL A   1      15.329 -16.885  -3.480  1.00  0.00     0.018 A 
ATOM      6 Br32 MOL A   1      15.298 -17.673  -1.736  1.00  0.00    -0.051 Br
ATOM      7 C33  MOL A   1      15.601 -17.677  -4.600  1.00  0.00    -0.043 A 
ENDROOT
BRANCH   1   8
ATOM      8  C6  MOL A   1      15.871 -17.961  -7.113  1.00  0.00     0.063 C 
BRANCH   8   9
ATOM      9  C5  MOL A   1      17.175 -17.543  -7.816  1.00  0.00     0.051 C 
BRANCH   9  12
ATOM     10  C1  MOL A   1      19.585 -19.699  -9.987  1.00  0.00     0.006 C 
ATOM     11  N2  MOL A   1      18.853 -18.569  -9.433  1.00  0.00    -0.359 N 
ATOM     12  C3  MOL A   1      17.906 -18.730  -8.372  1.00  0.00     0.222 C 
ATOM     13  O4  MOL A   1      17.682 -19.875  -7.892  1.00  0.00    -0.275 OA
ENDBRANCH   9  12
ENDBRANCH   8   9
BRANCH   8  14
ATOM     14  N7  MOL A   1      14.731 -17.849  -8.029  1.00  0.00    -0.346 N 
ATOM     15  C8  MOL A   1      13.789 -18.907  -8.218  1.00  0.00     0.258 C 
ATOM     16  O9  MOL A   1      13.920 -19.993  -7.594  1.00  0.00    -0.271 OA
BRANCH  15  17
ATOM     17 C10  MOL A   1      12.626 -18.730  -9.148  1.00  0.00     0.167 C 
BRANCH  17  18
ATOM     18 O11  MOL A   1      11.397 -18.920  -8.452  1.00  0.00    -0.480 OA
BRANCH  18  19
ATOM     19 C12  MOL A   1      10.277 -18.120  -8.693  1.00  0.00     0.166 A 
ATOM     20 C13  MOL A   1       9.407 -18.387  -9.775  1.00  0.00     0.012 A 
ATOM     21 C21  MOL A   1       8.250 -17.606  -9.934  1.00  0.00    -0.054 A 
ATOM     22 C22  MOL A   1       7.985 -16.549  -9.064  1.00  0.00    -0.058 A 
ATOM     23 C23  MOL A   1       8.871 -16.256  -8.026  1.00  0.00    -0.016 A 
ATOM     24 C24  MOL A   1      10.026 -17.037  -7.836  1.00  0.00     0.161 A 
BRANCH  20  25
ATOM     25 C14  MOL A   1       9.689 -19.491 -10.770  1.00  0.00     0.028 C 
BRANCH  25  26
ATOM     26 N15  MOL A   1       8.719 -20.594 -10.607  1.00  0.00    -0.287 NA
ATOM     27 C16  MOL A   1       8.653 -21.054  -9.209  1.00  0.00     0.064 C 
ATOM     28 C17  MOL A   1       9.229 -22.413  -9.552  1.00  0.00     0.272 C 
ATOM     29 F18  MOL A   1       8.334 -23.455  -9.382  1.00  0.00    -0.204 F 
ATOM     30 F19  MOL A   1      10.475 -22.648  -8.995  1.00  0.00    -0.204 F 
ATOM     31 C20  MOL A   1       9.293 -21.898 -10.977  1.00  0.00     0.064 C 
ENDBRANCH  25  26
ENDBRANCH  20  25
BRANCH  24  32
ATOM     32 O25  MOL A   1      10.941 -16.775  -6.806  1.00  0.00    -0.493 OA
ATOM     33 C26  MOL A   1      11.979 -15.803  -6.879  1.00  0.00     0.078 C 
ENDBRANCH  24  32
ENDBRANCH  18  19
ENDBRANCH  17  18
ENDBRANCH  15  17
ENDBRANCH   8  14
ENDBRANCH   1   8
TORSDOF 10
ENDMDL
MODEL 477
REMARK VINA RESULT:    -6.913      6.916     10.328
REMARK INTER + INTRA:         -12.003
REMARK INTER:                 -10.606
REMARK INTRA:                  -1.397
REMARK UNBOUND:                -1.048
REMARK  10 active torsions:
REMARK  status: ('A' for Active; 'I' for Inactive)
REMARK   1   A    between atoms:  C27_1   and   C6_8  
REMARK   2   A    between atoms:  C6_8    and   C5_9  
REMARK   3   A    between atoms:  C5_9    and   C3_12 
REMARK   4   A    between atoms:  C6_8    and   N7_14 
REMARK   5   A    between atoms:  C8_15   and  C10_17 
REMARK   6   A    between atoms: C10_17   and  O11_18 
REMARK   7   A    between atoms: O11_18   and  C12_19 
REMARK   8   A    between atoms: C13_20   and  C14_25 
REMARK   9   A    between atoms: C14_25   and  N15_26 
REMARK   10  A    between atoms: C24_24   and  O25_32 
ROOT
ATOM      1 C27  MOL A   1      16.561 -19.639  -5.811  1.00  0.00    -0.024 A 
ATOM      2 C28  MOL A   1      17.783 -19.067  -6.208  1.00  0.00    -0.057 A 
ATOM      3 C29  MOL A   1      18.435 -18.144  -5.382  1.00  0.00    -0.061 A 
ATOM      4 C30  MOL A   1      17.873 -17.784  -4.154  1.00  0.00    -0.048 A 
ATOM      5 C31  MOL A   1      16.659 -18.348  -3.745  1.00  0.00     0.018 A 
ATOM      6 Br32 MOL A   1      15.903 -17.871  -2.054  1.00  0.00    -0.051 Br
ATOM      7 C33  MOL A   1      16.003 -19.267  -4.571  1.00  0.00    -0.043 A 
ENDROOT
BRANCH   1   8
ATOM      8  C6  MOL A   1      15.827 -20.580  -6.742  1.00  0.00     0.063 C 
BRANCH   8   9
ATOM      9  C5  MOL A   1      16.478 -20.555  -8.137  1.00  0.00     0.051 C 
BRANCH   9  12
ATOM     10  C1  MOL A   1      18.860 -23.606  -8.572  1.00  0.00     0.006 C 
ATOM     11  N2  MOL A   1      18.335 -22.296  -8.214  1.00  0.00    -0.359 N 
ATOM     12  C3  MOL A   1      16.993 -21.910  -8.528  1.00  0.00     0.222 C 
ATOM     13  O4  MOL A   1      16.230 -22.710  -9.136  1.00  0.00    -0.275 OA
ENDBRANCH   9  12
ENDBRANCH   8   9
BRANCH   8  14
ATOM     14  N7  MOL A   1      14.411 -20.210  -6.826  1.00  0.00    -0.346 N 
ATOM     15  C8  MOL A   1      13.356 -21.162  -6.671  1.00  0.00     0.258 C 
ATOM     16  O9  MOL A   1      13.622 -22.376  -6.464  1.00  0.00    -0.271 OA
BRANCH  15  17
ATOM     17 C10  MOL A   1      11.924 -20.725  -6.740  1.00  0.00     0.167 C 
BRANCH  17  18
ATOM     18 O11  MOL A   1      11.669 -20.043  -7.966  1.00  0.00    -0.480 OA
BRANCH  18  19
ATOM     19 C12  MOL A   1      10.793 -18.956  -8.041  1.00  0.00     0.166 A 
ATOM     20 C13  MOL A   1       9.467 -19.116  -8.504  1.00  0.00     0.012 A 
ATOM     21 C21  MOL A   1       8.598 -18.013  -8.488  1.00  0.00    -0.054 A 
ATOM     22 C22  MOL A   1       9.049 -16.762  -8.066  1.00  0.00    -0.058 A 
ATOM     23 C23  MOL A   1      10.372 -16.595  -7.657  1.00  0.00    -0.016 A 
ATOM     24 C24  MOL A   1      11.256 -17.691  -7.645  1.00  0.00     0.161 A 
BRANCH  20  25
ATOM     25 C14  MOL A   1       8.958 -20.444  -9.019  1.00  0.00     0.028 C 
BRANCH  25  26
ATOM     26 N15  MOL A   1       7.513 -20.363  -9.316  1.00  0.00    -0.287 NA
ATOM     27 C16  MOL A   1       6.784 -21.524  -8.778  1.00  0.00     0.064 C 
ATOM     28 C17  MOL A   1       6.427 -22.033 -10.161  1.00  0.00     0.272 C 
ATOM     29 F18  MOL A   1       5.073 -21.980 -10.441  1.00  0.00    -0.204 F 
ATOM     30 F19  MOL A   1       7.019 -23.244 -10.480  1.00  0.00    -0.204 F 
ATOM     31 C20  MOL A   1       7.198 -20.833 -10.676  1.00  0.00     0.064 C 
ENDBRANCH  25  26
ENDBRANCH  20  25
BRANCH  24  32
ATOM     32 O25  MOL A   1      12.593 -17.565  -7.242  1.00  0.00    -0.493 OA
ATOM     33 C26  MOL A   1      13.469 -16.528  -7.670  1.00  0.00     0.078 C 
ENDBRANCH  24  32
ENDBRANCH  18  19
ENDBRANCH  17  18
ENDBRANCH  15  17
ENDBRANCH   8  14
ENDBRANCH   1   8
TORSDOF 10
ENDMDL
MODEL 478
REMARK VINA RESULT:    -6.912      6.513      9.824
REMARK INTER + INTRA:         -12.001
REMARK INTER:                 -10.716
REMARK INTRA:                  -1.285
REMARK UNBOUND:                -1.048
REMARK  10 active torsions:
REMARK  status: ('A' for Active; 'I' for Inactive)
REMARK   1   A    between atoms:  C27_1   and   C6_8  
REMARK   2   A    between atoms:  C6_8    and   C5_9  
REMARK   3   A    between atoms:  C5_9    and   C3_12 
REMARK   4   A    between atoms:  C6_8    and   N7_14 
REMARK   5   A    between atoms:  C8_15   and  C10_17 
REMARK   6   A    between atoms: C10_17   and  O11_18 
REMARK   7   A    between atoms: O11_18   and  C12_19 
REMARK   8   A    between atoms: C13_20   and  C14_25 
REMARK   9   A    between atoms: C14_25   and  N15_26 
REMARK   10  A    between atoms: C24_24   and  O25_32 
ROOT
ATOM      1 C27  MOL A   1      16.417 -17.758  -7.799  1.00  0.00    -0.024 A 
ATOM      2 C28  MOL A   1      16.569 -16.576  -8.546  1.00  0.00    -0.057 A 
ATOM      3 C29  MOL A   1      16.835 -15.362  -7.904  1.00  0.00    -0.061 A 
ATOM      4 C30  MOL A   1      16.952 -15.315  -6.512  1.00  0.00    -0.048 A 
ATOM      5 C31  MOL A   1      16.807 -16.484  -5.757  1.00  0.00     0.018 A 
ATOM      6 Br32 MOL A   1      16.989 -16.424  -3.853  1.00  0.00    -0.051 Br
ATOM      7 C33  MOL A   1      16.535 -17.699  -6.395  1.00  0.00    -0.043 A 
ENDROOT
BRANCH   1   8
ATOM      8  C6  MOL A   1      16.058 -19.053  -8.494  1.00  0.00     0.063 C 
BRANCH   8   9
ATOM      9  C5  MOL A   1      17.067 -19.345  -9.620  1.00  0.00     0.051 C 
BRANCH   9  12
ATOM     10  C1  MOL A   1      19.021 -21.960  -7.495  1.00  0.00     0.006 C 
ATOM     11  N2  MOL A   1      17.991 -21.043  -7.962  1.00  0.00    -0.359 N 
ATOM     12  C3  MOL A   1      18.152 -20.275  -9.159  1.00  0.00     0.222 C 
ATOM     13  O4  MOL A   1      19.209 -20.377  -9.839  1.00  0.00    -0.275 OA
ENDBRANCH   9  12
ENDBRANCH   8   9
BRANCH   8  14
ATOM     14  N7  MOL A   1      14.694 -18.981  -9.029  1.00  0.00    -0.346 N 
ATOM     15  C8  MOL A   1      13.599 -19.688  -8.443  1.00  0.00     0.258 C 
ATOM     16  O9  MOL A   1      13.783 -20.418  -7.433  1.00  0.00    -0.271 OA
BRANCH  15  17
ATOM     17 C10  MOL A   1      12.219 -19.558  -9.015  1.00  0.00     0.167 C 
BRANCH  17  18
ATOM     18 O11  MOL A   1      11.271 -19.313  -7.979  1.00  0.00    -0.480 OA
BRANCH  18  19
ATOM     19 C12  MOL A   1      10.304 -18.309  -8.082  1.00  0.00     0.166 A 
ATOM     20 C13  MOL A   1       9.052 -18.560  -8.690  1.00  0.00     0.012 A 
ATOM     21 C21  MOL A   1       8.080 -17.546  -8.701  1.00  0.00    -0.054 A 
ATOM     22 C22  MOL A   1       8.362 -16.290  -8.163  1.00  0.00    -0.058 A 
ATOM     23 C23  MOL A   1       9.615 -16.029  -7.609  1.00  0.00    -0.016 A 
ATOM     24 C24  MOL A   1      10.598 -17.036  -7.568  1.00  0.00     0.161 A 
BRANCH  20  25
ATOM     25 C14  MOL A   1       8.730 -19.892  -9.331  1.00  0.00     0.028 C 
BRANCH  25  26
ATOM     26 N15  MOL A   1       7.301 -19.956  -9.698  1.00  0.00    -0.287 NA
ATOM     27 C16  MOL A   1       6.612 -21.058  -9.005  1.00  0.00     0.064 C 
ATOM     28 C17  MOL A   1       6.359 -21.809 -10.298  1.00  0.00     0.272 C 
ATOM     29 F18  MOL A   1       5.021 -21.892 -10.639  1.00  0.00    -0.204 F 
ATOM     30 F19  MOL A   1       7.036 -23.015 -10.383  1.00  0.00    -0.204 F 
ATOM     31 C20  MOL A   1       7.086 -20.662 -10.972  1.00  0.00     0.064 C 
ENDBRANCH  25  26
ENDBRANCH  20  25
BRANCH  24  32
ATOM     32 O25  MOL A   1      11.870 -16.814  -7.021  1.00  0.00    -0.493 OA
ATOM     33 C26  MOL A   1      12.279 -15.600  -6.401  1.00  0.00     0.078 C 
ENDBRANCH  24  32
ENDBRANCH  18  19
ENDBRANCH  17  18
ENDBRANCH  15  17
ENDBRANCH   8  14
ENDBRANCH   1   8
TORSDOF 10
ENDMDL
MODEL 479
REMARK VINA RESULT:    -6.909      5.692      8.128
REMARK INTER + INTRA:         -11.996
REMARK INTER:                 -11.504
REMARK INTRA:                  -0.492
REMARK UNBOUND:                -1.048
REMARK  10 active torsions:
REMARK  status: ('A' for Active; 'I' for Inactive)
REMARK   1   A    between atoms:  C27_1   and   C6_8  
REMARK   2   A    between atoms:  C6_8    and   C5_9  
REMARK   3   A    between atoms:  C5_9    and   C3_12 
REMARK   4   A    between atoms:  C6_8    and   N7_14 
REMARK   5   A    between atoms:  C8_15   and  C10_17 
REMARK   6   A    between atoms: C10_17   and  O11_18 
REMARK   7   A    between atoms: O11_18   and  C12_19 
REMARK   8   A    between atoms: C13_20   and  C14_25 
REMARK   9   A    between atoms: C14_25   and  N15_26 
REMARK   10  A    between atoms: C24_24   and  O25_32 
ROOT
ATOM      1 C27  MOL A   1      13.750 -18.580  -8.254  1.00  0.00    -0.024 A 
ATOM      2 C28  MOL A   1      14.582 -19.220  -9.191  1.00  0.00    -0.057 A 
ATOM      3 C29  MOL A   1      15.280 -20.380  -8.842  1.00  0.00    -0.061 A 
ATOM      4 C30  MOL A   1      15.156 -20.913  -7.555  1.00  0.00    -0.048 A 
ATOM      5 C31  MOL A   1      14.330 -20.288  -6.614  1.00  0.00     0.018 A 
ATOM      6 Br32 MOL A   1      14.144 -21.030  -4.861  1.00  0.00    -0.051 Br
ATOM      7 C33  MOL A   1      13.635 -19.124  -6.959  1.00  0.00    -0.043 A 
ENDROOT
BRANCH   1   8
ATOM      8  C6  MOL A   1      13.056 -17.285  -8.617  1.00  0.00     0.063 C 
BRANCH   8   9
ATOM      9  C5  MOL A   1      13.916 -16.085  -8.183  1.00  0.00     0.051 C 
BRANCH   9  12
ATOM     10  C1  MOL A   1      14.478 -15.754  -4.342  1.00  0.00     0.006 C 
ATOM     11  N2  MOL A   1      14.664 -16.084  -5.748  1.00  0.00    -0.359 N 
ATOM     12  C3  MOL A   1      13.690 -15.740  -6.739  1.00  0.00     0.222 C 
ATOM     13  O4  MOL A   1      12.633 -15.139  -6.405  1.00  0.00    -0.275 OA
ENDBRANCH   9  12
ENDBRANCH   8   9
BRANCH   8  14
ATOM     14  N7  MOL A   1      11.731 -17.226  -7.989  1.00  0.00    -0.346 N 
ATOM     15  C8  MOL A   1      10.548 -17.687  -8.645  1.00  0.00     0.258 C 
ATOM     16  O9  MOL A   1      10.611 -18.158  -9.811  1.00  0.00    -0.271 OA
BRANCH  15  17
ATOM     17 C10  MOL A   1       9.222 -17.627  -7.947  1.00  0.00     0.167 C 
BRANCH  17  18
ATOM     18 O11  MOL A   1       8.181 -18.068  -8.815  1.00  0.00    -0.480 OA
BRANCH  18  19
ATOM     19 C12  MOL A   1       7.171 -18.931  -8.381  1.00  0.00     0.166 A 
ATOM     20 C13  MOL A   1       7.375 -20.329  -8.334  1.00  0.00     0.012 A 
ATOM     21 C21  MOL A   1       6.361 -21.153  -7.818  1.00  0.00    -0.054 A 
ATOM     22 C22  MOL A   1       5.148 -20.605  -7.401  1.00  0.00    -0.058 A 
ATOM     23 C23  MOL A   1       4.930 -19.230  -7.495  1.00  0.00    -0.016 A 
ATOM     24 C24  MOL A   1       5.939 -18.383  -7.991  1.00  0.00     0.161 A 
BRANCH  20  25
ATOM     25 C14  MOL A   1       8.656 -20.965  -8.827  1.00  0.00     0.028 C 
BRANCH  25  26
ATOM     26 N15  MOL A   1       8.622 -21.123 -10.295  1.00  0.00    -0.287 NA
ATOM     27 C16  MOL A   1       7.271 -20.895 -10.833  1.00  0.00     0.064 C 
ATOM     28 C17  MOL A   1       7.125 -22.337 -11.277  1.00  0.00     0.272 C 
ATOM     29 F18  MOL A   1       7.071 -22.493 -12.651  1.00  0.00    -0.204 F 
ATOM     30 F19  MOL A   1       6.141 -23.034 -10.594  1.00  0.00    -0.204 F 
ATOM     31 C20  MOL A   1       8.513 -22.535 -10.700  1.00  0.00     0.064 C 
ENDBRANCH  25  26
ENDBRANCH  20  25
BRANCH  24  32
ATOM     32 O25  MOL A   1       5.759 -16.997  -8.103  1.00  0.00    -0.493 OA
ATOM     33 C26  MOL A   1       5.787 -16.090  -7.006  1.00  0.00     0.078 C 
ENDBRANCH  24  32
ENDBRANCH  18  19
ENDBRANCH  17  18
ENDBRANCH  15  17
ENDBRANCH   8  14
ENDBRANCH   1   8
TORSDOF 10
ENDMDL
MODEL 480
REMARK VINA RESULT:    -6.907      9.281     12.613
REMARK INTER + INTRA:         -11.992
REMARK INTER:                  -9.717
REMARK INTRA:                  -2.275
REMARK UNBOUND:                -1.048
REMARK  10 active torsions:
REMARK  status: ('A' for Active; 'I' for Inactive)
REMARK   1   A    between atoms:  C27_1   and   C6_8  
REMARK   2   A    between atoms:  C6_8    and   C5_9  
REMARK   3   A    between atoms:  C5_9    and   C3_12 
REMARK   4   A    between atoms:  C6_8    and   N7_14 
REMARK   5   A    between atoms:  C8_15   and  C10_17 
REMARK   6   A    between atoms: C10_17   and  O11_18 
REMARK   7   A    between atoms: O11_18   and  C12_19 
REMARK   8   A    between atoms: C13_20   and  C14_25 
REMARK   9   A    between atoms: C14_25   and  N15_26 
REMARK   10  A    between atoms: C24_24   and  O25_32 
ROOT
ATOM      1 C27  MOL A   1      15.355 -16.279  -4.765  1.00  0.00    -0.024 A 
ATOM      2 C28  MOL A   1      16.679 -15.904  -5.055  1.00  0.00    -0.057 A 
ATOM      3 C29  MOL A   1      17.752 -16.654  -4.561  1.00  0.00    -0.061 A 
ATOM      4 C30  MOL A   1      17.514 -17.784  -3.773  1.00  0.00    -0.048 A 
ATOM      5 C31  MOL A   1      16.201 -18.170  -3.480  1.00  0.00     0.018 A 
ATOM      6 Br32 MOL A   1      15.875 -19.729  -2.420  1.00  0.00    -0.051 Br
ATOM      7 C33  MOL A   1      15.126 -17.419  -3.968  1.00  0.00    -0.043 A 
ENDROOT
BRANCH   1   8
ATOM      8  C6  MOL A   1      14.203 -15.421  -5.242  1.00  0.00     0.063 C 
BRANCH   8   9
ATOM      9  C5  MOL A   1      13.303 -15.038  -4.053  1.00  0.00     0.051 C 
BRANCH   9  12
ATOM     10  C1  MOL A   1      15.005 -13.577  -0.869  1.00  0.00     0.006 C 
ATOM     11  N2  MOL A   1      14.326 -14.477  -1.789  1.00  0.00    -0.359 N 
ATOM     12  C3  MOL A   1      13.995 -14.082  -3.125  1.00  0.00     0.222 C 
ATOM     13  O4  MOL A   1      14.288 -12.925  -3.533  1.00  0.00    -0.275 OA
ENDBRANCH   9  12
ENDBRANCH   8   9
BRANCH   8  14
ATOM     14  N7  MOL A   1      13.430 -16.132  -6.266  1.00  0.00    -0.346 N 
ATOM     15  C8  MOL A   1      13.802 -16.134  -7.646  1.00  0.00     0.258 C 
ATOM     16  O9  MOL A   1      14.821 -15.502  -8.031  1.00  0.00    -0.271 OA
BRANCH  15  17
ATOM     17 C10  MOL A   1      12.991 -16.900  -8.649  1.00  0.00     0.167 C 
BRANCH  17  18
ATOM     18 O11  MOL A   1      13.496 -18.225  -8.792  1.00  0.00    -0.480 OA
BRANCH  18  19
ATOM     19 C12  MOL A   1      13.370 -19.180  -7.781  1.00  0.00     0.166 A 
ATOM     20 C13  MOL A   1      14.485 -19.576  -7.005  1.00  0.00     0.012 A 
ATOM     21 C21  MOL A   1      14.297 -20.480  -5.947  1.00  0.00    -0.054 A 
ATOM     22 C22  MOL A   1      13.036 -21.020  -5.692  1.00  0.00    -0.058 A 
ATOM     23 C23  MOL A   1      11.948 -20.667  -6.490  1.00  0.00    -0.016 A 
ATOM     24 C24  MOL A   1      12.107 -19.747  -7.544  1.00  0.00     0.161 A 
BRANCH  20  25
ATOM     25 C14  MOL A   1      15.876 -19.053  -7.286  1.00  0.00     0.028 C 
BRANCH  25  26
ATOM     26 N15  MOL A   1      16.723 -20.119  -7.858  1.00  0.00    -0.287 NA
ATOM     27 C16  MOL A   1      17.655 -20.666  -6.857  1.00  0.00     0.064 C 
ATOM     28 C17  MOL A   1      18.870 -20.136  -7.593  1.00  0.00     0.272 C 
ATOM     29 F18  MOL A   1      19.681 -21.129  -8.115  1.00  0.00    -0.204 F 
ATOM     30 F19  MOL A   1      19.560 -19.156  -6.897  1.00  0.00    -0.204 F 
ATOM     31 C20  MOL A   1      17.878 -19.577  -8.594  1.00  0.00     0.064 C 
ENDBRANCH  25  26
ENDBRANCH  20  25
BRANCH  24  32
ATOM     32 O25  MOL A   1      11.040 -19.367  -8.369  1.00  0.00    -0.493 OA
ATOM     33 C26  MOL A   1      10.657 -20.051  -9.558  1.00  0.00     0.078 C 
ENDBRANCH  24  32
ENDBRANCH  18  19
ENDBRANCH  17  18
ENDBRANCH  15  17
ENDBRANCH   8  14
ENDBRANCH   1   8
TORSDOF 10
ENDMDL
MODEL 481
REMARK VINA RESULT:    -6.897      7.503     11.208
REMARK INTER + INTRA:         -11.977
REMARK INTER:                 -10.287
REMARK INTRA:                  -1.690
REMARK UNBOUND:                -1.048
REMARK  10 active torsions:
REMARK  status: ('A' for Active; 'I' for Inactive)
REMARK   1   A    between atoms:  C27_1   and   C6_8  
REMARK   2   A    between atoms:  C6_8    and   C5_9  
REMARK   3   A    between atoms:  C5_9    and   C3_12 
REMARK   4   A    between atoms:  C6_8    and   N7_14 
REMARK   5   A    between atoms:  C8_15   and  C10_17 
REMARK   6   A    between atoms: C10_17   and  O11_18 
REMARK   7   A    between atoms: O11_18   and  C12_19 
REMARK   8   A    between atoms: C13_20   and  C14_25 
REMARK   9   A    between atoms: C14_25   and  N15_26 
REMARK   10  A    between atoms: C24_24   and  O25_32 
ROOT
ATOM      1 C27  MOL A   1      11.088 -19.262  -8.643  1.00  0.00    -0.024 A 
ATOM      2 C28  MOL A   1      10.735 -17.907  -8.508  1.00  0.00    -0.057 A 
ATOM      3 C29  MOL A   1       9.491 -17.451  -8.957  1.00  0.00    -0.061 A 
ATOM      4 C30  MOL A   1       8.589 -18.342  -9.545  1.00  0.00    -0.048 A 
ATOM      5 C31  MOL A   1       8.926 -19.693  -9.683  1.00  0.00     0.018 A 
ATOM      6 Br32 MOL A   1       7.681 -20.916 -10.468  1.00  0.00    -0.051 Br
ATOM      7 C33  MOL A   1      10.171 -20.151  -9.239  1.00  0.00    -0.043 A 
ENDROOT
BRANCH   1   8
ATOM      8  C6  MOL A   1      12.463 -19.732  -8.221  1.00  0.00     0.063 C 
BRANCH   8   9
ATOM      9  C5  MOL A   1      12.496 -19.966  -6.700  1.00  0.00     0.051 C 
BRANCH   9  12
ATOM     10  C1  MOL A   1      12.856 -23.843  -6.573  1.00  0.00     0.006 C 
ATOM     11  N2  MOL A   1      12.369 -22.504  -6.872  1.00  0.00    -0.359 N 
ATOM     12  C3  MOL A   1      13.018 -21.333  -6.364  1.00  0.00     0.222 C 
ATOM     13  O4  MOL A   1      14.039 -21.444  -5.632  1.00  0.00    -0.275 OA
ENDBRANCH   9  12
ENDBRANCH   8   9
BRANCH   8  14
ATOM     14  N7  MOL A   1      13.479 -18.750  -8.614  1.00  0.00    -0.346 N 
ATOM     15  C8  MOL A   1      14.821 -19.119  -8.939  1.00  0.00     0.258 C 
ATOM     16  O9  MOL A   1      15.178 -20.326  -8.885  1.00  0.00    -0.271 OA
BRANCH  15  17
ATOM     17 C10  MOL A   1      15.813 -18.077  -9.361  1.00  0.00     0.167 C 
BRANCH  17  18
ATOM     18 O11  MOL A   1      16.255 -17.324  -8.234  1.00  0.00    -0.480 OA
BRANCH  18  19
ATOM     19 C12  MOL A   1      16.710 -17.938  -7.064  1.00  0.00     0.166 A 
ATOM     20 C13  MOL A   1      15.975 -17.851  -5.859  1.00  0.00     0.012 A 
ATOM     21 C21  MOL A   1      16.428 -18.549  -4.728  1.00  0.00    -0.054 A 
ATOM     22 C22  MOL A   1      17.614 -19.281  -4.776  1.00  0.00    -0.058 A 
ATOM     23 C23  MOL A   1      18.364 -19.325  -5.951  1.00  0.00    -0.016 A 
ATOM     24 C24  MOL A   1      17.920 -18.650  -7.103  1.00  0.00     0.161 A 
BRANCH  20  25
ATOM     25 C14  MOL A   1      14.712 -17.024  -5.754  1.00  0.00     0.028 C 
BRANCH  25  26
ATOM     26 N15  MOL A   1      15.043 -15.613  -5.469  1.00  0.00    -0.287 NA
ATOM     27 C16  MOL A   1      15.020 -15.333  -4.023  1.00  0.00     0.064 C 
ATOM     28 C17  MOL A   1      13.829 -14.402  -4.148  1.00  0.00     0.272 C 
ATOM     29 F18  MOL A   1      14.125 -13.081  -3.862  1.00  0.00    -0.204 F 
ATOM     30 F19  MOL A   1      12.687 -14.871  -3.519  1.00  0.00    -0.204 F 
ATOM     31 C20  MOL A   1      13.878 -14.726  -5.628  1.00  0.00     0.064 C 
ENDBRANCH  25  26
ENDBRANCH  20  25
BRANCH  24  32
ATOM     32 O25  MOL A   1      18.644 -18.668  -8.304  1.00  0.00    -0.493 OA
ATOM     33 C26  MOL A   1      18.889 -19.836  -9.080  1.00  0.00     0.078 C 
ENDBRANCH  24  32
ENDBRANCH  18  19
ENDBRANCH  17  18
ENDBRANCH  15  17
ENDBRANCH   8  14
ENDBRANCH   1   8
TORSDOF 10
ENDMDL
MODEL 482
REMARK VINA RESULT:    -6.896      7.825     11.893
REMARK INTER + INTRA:         -11.976
REMARK INTER:                 -10.033
REMARK INTRA:                  -1.944
REMARK UNBOUND:                -1.048
REMARK  10 active torsions:
REMARK  status: ('A' for Active; 'I' for Inactive)
REMARK   1   A    between atoms:  C27_1   and   C6_8  
REMARK   2   A    between atoms:  C6_8    and   C5_9  
REMARK   3   A    between atoms:  C5_9    and   C3_12 
REMARK   4   A    between atoms:  C6_8    and   N7_14 
REMARK   5   A    between atoms:  C8_15   and  C10_17 
REMARK   6   A    between atoms: C10_17   and  O11_18 
REMARK   7   A    between atoms: O11_18   and  C12_19 
REMARK   8   A    between atoms: C13_20   and  C14_25 
REMARK   9   A    between atoms: C14_25   and  N15_26 
REMARK   10  A    between atoms: C24_24   and  O25_32 
ROOT
ATOM      1 C27  MOL A   1      17.137 -17.381  -6.386  1.00  0.00    -0.024 A 
ATOM      2 C28  MOL A   1      18.159 -18.185  -5.850  1.00  0.00    -0.057 A 
ATOM      3 C29  MOL A   1      18.984 -18.936  -6.695  1.00  0.00    -0.061 A 
ATOM      4 C30  MOL A   1      18.797 -18.891  -8.079  1.00  0.00    -0.048 A 
ATOM      5 C31  MOL A   1      17.786 -18.093  -8.625  1.00  0.00     0.018 A 
ATOM      6 Br32 MOL A   1      17.545 -18.015 -10.521  1.00  0.00    -0.051 Br
ATOM      7 C33  MOL A   1      16.956 -17.345  -7.783  1.00  0.00    -0.043 A 
ENDROOT
BRANCH   1   8
ATOM      8  C6  MOL A   1      16.203 -16.629  -5.462  1.00  0.00     0.063 C 
BRANCH   8   9
ATOM      9  C5  MOL A   1      16.462 -17.040  -4.001  1.00  0.00     0.051 C 
BRANCH   9  12
ATOM     10  C1  MOL A   1      14.263 -15.500  -1.180  1.00  0.00     0.006 C 
ATOM     11  N2  MOL A   1      14.841 -16.437  -2.132  1.00  0.00    -0.359 N 
ATOM     12  C3  MOL A   1      15.878 -16.047  -3.038  1.00  0.00     0.222 C 
ATOM     13  O4  MOL A   1      16.313 -14.863  -3.031  1.00  0.00    -0.275 OA
ENDBRANCH   9  12
ENDBRANCH   8   9
BRANCH   8  14
ATOM     14  N7  MOL A   1      14.807 -16.887  -5.831  1.00  0.00    -0.346 N 
ATOM     15  C8  MOL A   1      13.933 -15.859  -6.301  1.00  0.00     0.258 C 
ATOM     16  O9  MOL A   1      14.345 -14.673  -6.404  1.00  0.00    -0.271 OA
BRANCH  15  17
ATOM     17 C10  MOL A   1      12.521 -16.182  -6.690  1.00  0.00     0.167 C 
BRANCH  17  18
ATOM     18 O11  MOL A   1      12.501 -17.022  -7.842  1.00  0.00    -0.480 OA
BRANCH  18  19
ATOM     19 C12  MOL A   1      11.682 -18.152  -7.921  1.00  0.00     0.166 A 
ATOM     20 C13  MOL A   1      12.233 -19.453  -7.972  1.00  0.00     0.012 A 
ATOM     21 C21  MOL A   1      11.372 -20.562  -7.971  1.00  0.00    -0.054 A 
ATOM     22 C22  MOL A   1       9.988 -20.385  -7.970  1.00  0.00    -0.058 A 
ATOM     23 C23  MOL A   1       9.446 -19.100  -7.971  1.00  0.00    -0.016 A 
ATOM     24 C24  MOL A   1      10.289 -17.973  -7.951  1.00  0.00     0.161 A 
BRANCH  20  25
ATOM     25 C14  MOL A   1      13.727 -19.683  -8.028  1.00  0.00     0.028 C 
BRANCH  25  26
ATOM     26 N15  MOL A   1      14.114 -20.782  -7.120  1.00  0.00    -0.287 NA
ATOM     27 C16  MOL A   1      15.455 -20.567  -6.550  1.00  0.00     0.064 C 
ATOM     28 C17  MOL A   1      16.036 -21.765  -7.275  1.00  0.00     0.272 C 
ATOM     29 F18  MOL A   1      16.421 -22.792  -6.430  1.00  0.00    -0.204 F 
ATOM     30 F19  MOL A   1      16.987 -21.434  -8.226  1.00  0.00    -0.204 F 
ATOM     31 C20  MOL A   1      14.645 -21.946  -7.851  1.00  0.00     0.064 C 
ENDBRANCH  25  26
ENDBRANCH  20  25
BRANCH  24  32
ATOM     32 O25  MOL A   1       9.785 -16.664  -7.952  1.00  0.00    -0.493 OA
ATOM     33 C26  MOL A   1       8.589 -16.263  -8.612  1.00  0.00     0.078 C 
ENDBRANCH  24  32
ENDBRANCH  18  19
ENDBRANCH  17  18
ENDBRANCH  15  17
ENDBRANCH   8  14
ENDBRANCH   1   8
TORSDOF 10
ENDMDL
MODEL 483
REMARK VINA RESULT:    -6.896      7.424     11.302
REMARK INTER + INTRA:         -11.976
REMARK INTER:                 -10.135
REMARK INTRA:                  -1.841
REMARK UNBOUND:                -1.048
REMARK  10 active torsions:
REMARK  status: ('A' for Active; 'I' for Inactive)
REMARK   1   A    between atoms:  C27_1   and   C6_8  
REMARK   2   A    between atoms:  C6_8    and   C5_9  
REMARK   3   A    between atoms:  C5_9    and   C3_12 
REMARK   4   A    between atoms:  C6_8    and   N7_14 
REMARK   5   A    between atoms:  C8_15   and  C10_17 
REMARK   6   A    between atoms: C10_17   and  O11_18 
REMARK   7   A    between atoms: O11_18   and  C12_19 
REMARK   8   A    between atoms: C13_20   and  C14_25 
REMARK   9   A    between atoms: C14_25   and  N15_26 
REMARK   10  A    between atoms: C24_24   and  O25_32 
ROOT
ATOM      1 C27  MOL A   1      16.682 -17.456  -8.132  1.00  0.00    -0.024 A 
ATOM      2 C28  MOL A   1      16.615 -18.857  -8.241  1.00  0.00    -0.057 A 
ATOM      3 C29  MOL A   1      17.160 -19.508  -9.353  1.00  0.00    -0.061 A 
ATOM      4 C30  MOL A   1      17.776 -18.768 -10.366  1.00  0.00    -0.048 A 
ATOM      5 C31  MOL A   1      17.853 -17.374 -10.268  1.00  0.00     0.018 A 
ATOM      6 Br32 MOL A   1      18.716 -16.364 -11.644  1.00  0.00    -0.051 Br
ATOM      7 C33  MOL A   1      17.304 -16.720  -9.160  1.00  0.00    -0.043 A 
ENDROOT
BRANCH   1   8
ATOM      8  C6  MOL A   1      16.026 -16.755  -6.962  1.00  0.00     0.063 C 
BRANCH   8   9
ATOM      9  C5  MOL A   1      16.747 -17.127  -5.653  1.00  0.00     0.051 C 
BRANCH   9  12
ATOM     10  C1  MOL A   1      15.276 -14.536  -3.144  1.00  0.00     0.006 C 
ATOM     11  N2  MOL A   1      15.954 -15.129  -4.288  1.00  0.00    -0.359 N 
ATOM     12  C3  MOL A   1      16.050 -16.547  -4.457  1.00  0.00     0.222 C 
ATOM     13  O4  MOL A   1      15.543 -17.321  -3.600  1.00  0.00    -0.275 OA
ENDBRANCH   9  12
ENDBRANCH   8   9
BRANCH   8  14
ATOM     14  N7  MOL A   1      14.605 -17.111  -6.888  1.00  0.00    -0.346 N 
ATOM     15  C8  MOL A   1      13.563 -16.180  -7.188  1.00  0.00     0.258 C 
ATOM     16  O9  MOL A   1      13.843 -14.998  -7.522  1.00  0.00    -0.271 OA
BRANCH  15  17
ATOM     17 C10  MOL A   1      12.126 -16.604  -7.122  1.00  0.00     0.167 C 
BRANCH  17  18
ATOM     18 O11  MOL A   1      11.739 -17.246  -8.334  1.00  0.00    -0.480 OA
BRANCH  18  19
ATOM     19 C12  MOL A   1      10.853 -18.326  -8.350  1.00  0.00     0.166 A 
ATOM     20 C13  MOL A   1      11.298 -19.642  -8.085  1.00  0.00     0.012 A 
ATOM     21 C21  MOL A   1      10.359 -20.686  -8.034  1.00  0.00    -0.054 A 
ATOM     22 C22  MOL A   1       9.011 -20.438  -8.289  1.00  0.00    -0.058 A 
ATOM     23 C23  MOL A   1       8.581 -19.148  -8.600  1.00  0.00    -0.016 A 
ATOM     24 C24  MOL A   1       9.500 -18.083  -8.637  1.00  0.00     0.161 A 
BRANCH  20  25
ATOM     25 C14  MOL A   1      12.760 -19.957  -7.856  1.00  0.00     0.028 C 
BRANCH  25  26
ATOM     26 N15  MOL A   1      12.928 -21.375  -7.477  1.00  0.00    -0.287 NA
ATOM     27 C16  MOL A   1      13.345 -21.514  -6.072  1.00  0.00     0.064 C 
ATOM     28 C17  MOL A   1      14.700 -22.078  -6.453  1.00  0.00     0.272 C 
ATOM     29 F18  MOL A   1      14.875 -23.400  -6.083  1.00  0.00    -0.204 F 
ATOM     30 F19  MOL A   1      15.762 -21.255  -6.115  1.00  0.00    -0.204 F 
ATOM     31 C20  MOL A   1      14.239 -21.907  -7.887  1.00  0.00     0.064 C 
ENDBRANCH  25  26
ENDBRANCH  20  25
BRANCH  24  32
ATOM     32 O25  MOL A   1       9.109 -16.772  -8.947  1.00  0.00    -0.493 OA
ATOM     33 C26  MOL A   1       7.803 -16.400  -9.375  1.00  0.00     0.078 C 
ENDBRANCH  24  32
ENDBRANCH  18  19
ENDBRANCH  17  18
ENDBRANCH  15  17
ENDBRANCH   8  14
ENDBRANCH   1   8
TORSDOF 10
ENDMDL
MODEL 484
REMARK VINA RESULT:    -6.893      9.103     12.859
REMARK INTER + INTRA:         -11.971
REMARK INTER:                  -9.725
REMARK INTRA:                  -2.246
REMARK UNBOUND:                -1.048
REMARK  10 active torsions:
REMARK  status: ('A' for Active; 'I' for Inactive)
REMARK   1   A    between atoms:  C27_1   and   C6_8  
REMARK   2   A    between atoms:  C6_8    and   C5_9  
REMARK   3   A    between atoms:  C5_9    and   C3_12 
REMARK   4   A    between atoms:  C6_8    and   N7_14 
REMARK   5   A    between atoms:  C8_15   and  C10_17 
REMARK   6   A    between atoms: C10_17   and  O11_18 
REMARK   7   A    between atoms: O11_18   and  C12_19 
REMARK   8   A    between atoms: C13_20   and  C14_25 
REMARK   9   A    between atoms: C14_25   and  N15_26 
REMARK   10  A    between atoms: C24_24   and  O25_32 
ROOT
ATOM      1 C27  MOL A   1      16.577 -19.420  -8.500  1.00  0.00    -0.024 A 
ATOM      2 C28  MOL A   1      17.833 -19.502  -7.872  1.00  0.00    -0.057 A 
ATOM      3 C29  MOL A   1      18.997 -19.166  -8.573  1.00  0.00    -0.061 A 
ATOM      4 C30  MOL A   1      18.918 -18.745  -9.903  1.00  0.00    -0.048 A 
ATOM      5 C31  MOL A   1      17.674 -18.656 -10.538  1.00  0.00     0.018 A 
ATOM      6 Br32 MOL A   1      17.565 -18.059 -12.352  1.00  0.00    -0.051 Br
ATOM      7 C33  MOL A   1      16.509 -18.997  -9.842  1.00  0.00    -0.043 A 
ENDROOT
BRANCH   1   8
ATOM      8  C6  MOL A   1      15.331 -19.855  -7.759  1.00  0.00     0.063 C 
BRANCH   8   9
ATOM      9  C5  MOL A   1      14.088 -19.202  -8.389  1.00  0.00     0.051 C 
BRANCH   9  12
ATOM     10  C1  MOL A   1      10.488 -19.706  -6.988  1.00  0.00     0.006 C 
ATOM     11  N2  MOL A   1      11.730 -19.090  -7.431  1.00  0.00    -0.359 N 
ATOM     12  C3  MOL A   1      12.823 -19.869  -7.930  1.00  0.00     0.222 C 
ATOM     13  O4  MOL A   1      12.728 -21.125  -7.991  1.00  0.00    -0.275 OA
ENDBRANCH   9  12
ENDBRANCH   8   9
BRANCH   8  14
ATOM     14  N7  MOL A   1      15.435 -19.504  -6.338  1.00  0.00    -0.346 N 
ATOM     15  C8  MOL A   1      15.361 -20.480  -5.297  1.00  0.00     0.258 C 
ATOM     16  O9  MOL A   1      15.190 -21.696  -5.577  1.00  0.00    -0.271 OA
BRANCH  15  17
ATOM     17 C10  MOL A   1      15.501 -20.069  -3.862  1.00  0.00     0.167 C 
BRANCH  17  18
ATOM     18 O11  MOL A   1      15.014 -18.743  -3.673  1.00  0.00    -0.480 OA
BRANCH  18  19
ATOM     19 C12  MOL A   1      15.652 -17.833  -2.826  1.00  0.00     0.166 A 
ATOM     20 C13  MOL A   1      16.575 -16.888  -3.330  1.00  0.00     0.012 A 
ATOM     21 C21  MOL A   1      17.132 -15.940  -2.455  1.00  0.00    -0.054 A 
ATOM     22 C22  MOL A   1      16.818 -15.960  -1.096  1.00  0.00    -0.058 A 
ATOM     23 C23  MOL A   1      15.946 -16.925  -0.592  1.00  0.00    -0.016 A 
ATOM     24 C24  MOL A   1      15.359 -17.872  -1.453  1.00  0.00     0.161 A 
BRANCH  20  25
ATOM     25 C14  MOL A   1      16.981 -16.869  -4.787  1.00  0.00     0.028 C 
BRANCH  25  26
ATOM     26 N15  MOL A   1      16.515 -15.627  -5.436  1.00  0.00    -0.287 NA
ATOM     27 C16  MOL A   1      15.756 -15.911  -6.666  1.00  0.00     0.064 C 
ATOM     28 C17  MOL A   1      16.806 -15.267  -7.550  1.00  0.00     0.272 C 
ATOM     29 F18  MOL A   1      16.372 -14.114  -8.179  1.00  0.00    -0.204 F 
ATOM     30 F19  MOL A   1      17.447 -16.160  -8.394  1.00  0.00    -0.204 F 
ATOM     31 C20  MOL A   1      17.564 -15.005  -6.263  1.00  0.00     0.064 C 
ENDBRANCH  25  26
ENDBRANCH  20  25
BRANCH  24  32
ATOM     32 O25  MOL A   1      14.478 -18.858  -0.986  1.00  0.00    -0.493 OA
ATOM     33 C26  MOL A   1      14.859 -19.951  -0.156  1.00  0.00     0.078 C 
ENDBRANCH  24  32
ENDBRANCH  18  19
ENDBRANCH  17  18
ENDBRANCH  15  17
ENDBRANCH   8  14
ENDBRANCH   1   8
TORSDOF 10
ENDMDL
MODEL 485
REMARK VINA RESULT:    -6.892      7.466     11.310
REMARK INTER + INTRA:         -11.969
REMARK INTER:                 -10.586
REMARK INTRA:                  -1.383
REMARK UNBOUND:                -1.048
REMARK  10 active torsions:
REMARK  status: ('A' for Active; 'I' for Inactive)
REMARK   1   A    between atoms:  C27_1   and   C6_8  
REMARK   2   A    between atoms:  C6_8    and   C5_9  
REMARK   3   A    between atoms:  C5_9    and   C3_12 
REMARK   4   A    between atoms:  C6_8    and   N7_14 
REMARK   5   A    between atoms:  C8_15   and  C10_17 
REMARK   6   A    between atoms: C10_17   and  O11_18 
REMARK   7   A    between atoms: O11_18   and  C12_19 
REMARK   8   A    between atoms: C13_20   and  C14_25 
REMARK   9   A    between atoms: C14_25   and  N15_26 
REMARK   10  A    between atoms: C24_24   and  O25_32 
ROOT
ATOM      1 C27  MOL A   1      11.046 -19.437  -8.850  1.00  0.00    -0.024 A 
ATOM      2 C28  MOL A   1      10.969 -18.726 -10.061  1.00  0.00    -0.057 A 
ATOM      3 C29  MOL A   1       9.747 -18.594 -10.728  1.00  0.00    -0.061 A 
ATOM      4 C30  MOL A   1       8.590 -19.169 -10.194  1.00  0.00    -0.048 A 
ATOM      5 C31  MOL A   1       8.652 -19.876  -8.987  1.00  0.00     0.018 A 
ATOM      6 Br32 MOL A   1       7.065 -20.643  -8.245  1.00  0.00    -0.051 Br
ATOM      7 C33  MOL A   1       9.874 -20.014  -8.320  1.00  0.00    -0.043 A 
ENDROOT
BRANCH   1   8
ATOM      8  C6  MOL A   1      12.384 -19.637  -8.172  1.00  0.00     0.063 C 
BRANCH   8   9
ATOM      9  C5  MOL A   1      12.431 -21.019  -7.495  1.00  0.00     0.051 C 
BRANCH   9  12
ATOM     10  C1  MOL A   1      16.088 -21.200  -6.167  1.00  0.00     0.006 C 
ATOM     11  N2  MOL A   1      14.938 -21.103  -7.054  1.00  0.00    -0.359 N 
ATOM     12  C3  MOL A   1      13.596 -21.133  -6.555  1.00  0.00     0.222 C 
ATOM     13  O4  MOL A   1      13.384 -21.252  -5.318  1.00  0.00    -0.275 OA
ENDBRANCH   9  12
ENDBRANCH   8   9
BRANCH   8  14
ATOM     14  N7  MOL A   1      12.621 -18.573  -7.191  1.00  0.00    -0.346 N 
ATOM     15  C8  MOL A   1      13.419 -17.424  -7.481  1.00  0.00     0.258 C 
ATOM     16  O9  MOL A   1      13.961 -17.295  -8.610  1.00  0.00    -0.271 OA
BRANCH  15  17
ATOM     17 C10  MOL A   1      13.608 -16.352  -6.449  1.00  0.00     0.167 C 
BRANCH  17  18
ATOM     18 O11  MOL A   1      14.958 -15.894  -6.447  1.00  0.00    -0.480 OA
BRANCH  18  19
ATOM     19 C12  MOL A   1      16.002 -16.665  -5.929  1.00  0.00     0.166 A 
ATOM     20 C13  MOL A   1      15.996 -17.094  -4.582  1.00  0.00     0.012 A 
ATOM     21 C21  MOL A   1      17.025 -17.933  -4.125  1.00  0.00    -0.054 A 
ATOM     22 C22  MOL A   1      18.068 -18.301  -4.975  1.00  0.00    -0.058 A 
ATOM     23 C23  MOL A   1      18.099 -17.836  -6.290  1.00  0.00    -0.016 A 
ATOM     24 C24  MOL A   1      17.068 -17.010  -6.776  1.00  0.00     0.161 A 
BRANCH  20  25
ATOM     25 C14  MOL A   1      14.910 -16.672  -3.617  1.00  0.00     0.028 C 
BRANCH  25  26
ATOM     26 N15  MOL A   1      15.479 -15.853  -2.526  1.00  0.00    -0.287 NA
ATOM     27 C16  MOL A   1      14.447 -15.449  -1.557  1.00  0.00     0.064 C 
ATOM     28 C17  MOL A   1      14.579 -13.983  -1.916  1.00  0.00     0.272 C 
ATOM     29 F18  MOL A   1      15.092 -13.204  -0.893  1.00  0.00    -0.204 F 
ATOM     30 F19  MOL A   1      13.448 -13.451  -2.513  1.00  0.00    -0.204 F 
ATOM     31 C20  MOL A   1      15.627 -14.439  -2.912  1.00  0.00     0.064 C 
ENDBRANCH  25  26
ENDBRANCH  20  25
BRANCH  24  32
ATOM     32 O25  MOL A   1      17.062 -16.521  -8.090  1.00  0.00    -0.493 OA
ATOM     33 C26  MOL A   1      17.535 -17.244  -9.221  1.00  0.00     0.078 C 
ENDBRANCH  24  32
ENDBRANCH  18  19
ENDBRANCH  17  18
ENDBRANCH  15  17
ENDBRANCH   8  14
ENDBRANCH   1   8
TORSDOF 10
ENDMDL
MODEL 486
REMARK VINA RESULT:    -6.891     10.754     13.575
REMARK INTER + INTRA:         -11.968
REMARK INTER:                 -10.495
REMARK INTRA:                  -1.473
REMARK UNBOUND:                -1.048
REMARK  10 active torsions:
REMARK  status: ('A' for Active; 'I' for Inactive)
REMARK   1   A    between atoms:  C27_1   and   C6_8  
REMARK   2   A    between atoms:  C6_8    and   C5_9  
REMARK   3   A    between atoms:  C5_9    and   C3_12 
REMARK   4   A    between atoms:  C6_8    and   N7_14 
REMARK   5   A    between atoms:  C8_15   and  C10_17 
REMARK   6   A    between atoms: C10_17   and  O11_18 
REMARK   7   A    between atoms: O11_18   and  C12_19 
REMARK   8   A    between atoms: C13_20   and  C14_25 
REMARK   9   A    between atoms: C14_25   and  N15_26 
REMARK   10  A    between atoms: C24_24   and  O25_32 
ROOT
ATOM      1 C27  MOL A   1      18.161 -18.237  -9.796  1.00  0.00    -0.024 A 
ATOM      2 C28  MOL A   1      19.362 -18.970  -9.794  1.00  0.00    -0.057 A 
ATOM      3 C29  MOL A   1      20.407 -18.617 -10.654  1.00  0.00    -0.061 A 
ATOM      4 C30  MOL A   1      20.264 -17.532 -11.523  1.00  0.00    -0.048 A 
ATOM      5 C31  MOL A   1      19.076 -16.793 -11.533  1.00  0.00     0.018 A 
ATOM      6 Br32 MOL A   1      18.889 -15.295 -12.708  1.00  0.00    -0.051 Br
ATOM      7 C33  MOL A   1      18.027 -17.146 -10.678  1.00  0.00    -0.043 A 
ENDROOT
BRANCH   1   8
ATOM      8  C6  MOL A   1      17.009 -18.669  -8.914  1.00  0.00     0.063 C 
BRANCH   8   9
ATOM      9  C5  MOL A   1      15.701 -18.682  -9.725  1.00  0.00     0.051 C 
BRANCH   9  12
ATOM     10  C1  MOL A   1      13.781 -21.270  -7.536  1.00  0.00     0.006 C 
ATOM     11  N2  MOL A   1      14.832 -20.593  -8.282  1.00  0.00    -0.359 N 
ATOM     12  C3  MOL A   1      14.593 -19.362  -8.973  1.00  0.00     0.222 C 
ATOM     13  O4  MOL A   1      13.447 -18.836  -8.951  1.00  0.00    -0.275 OA
ENDBRANCH   9  12
ENDBRANCH   8   9
BRANCH   8  14
ATOM     14  N7  MOL A   1      16.891 -17.775  -7.758  1.00  0.00    -0.346 N 
ATOM     15  C8  MOL A   1      17.115 -18.218  -6.417  1.00  0.00     0.258 C 
ATOM     16  O9  MOL A   1      17.419 -19.418  -6.187  1.00  0.00    -0.271 OA
BRANCH  15  17
ATOM     17 C10  MOL A   1      17.007 -17.255  -5.273  1.00  0.00     0.167 C 
BRANCH  17  18
ATOM     18 O11  MOL A   1      15.740 -17.384  -4.631  1.00  0.00    -0.480 OA
BRANCH  18  19
ATOM     19 C12  MOL A   1      15.136 -16.316  -3.963  1.00  0.00     0.166 A 
ATOM     20 C13  MOL A   1      15.094 -16.267  -2.550  1.00  0.00     0.012 A 
ATOM     21 C21  MOL A   1      14.548 -15.137  -1.920  1.00  0.00    -0.054 A 
ATOM     22 C22  MOL A   1      14.008 -14.096  -2.676  1.00  0.00    -0.058 A 
ATOM     23 C23  MOL A   1      14.004 -14.170  -4.069  1.00  0.00    -0.016 A 
ATOM     24 C24  MOL A   1      14.564 -15.282  -4.723  1.00  0.00     0.161 A 
BRANCH  20  25
ATOM     25 C14  MOL A   1      15.622 -17.400  -1.698  1.00  0.00     0.028 C 
BRANCH  25  26
ATOM     26 N15  MOL A   1      14.554 -18.385  -1.432  1.00  0.00    -0.287 NA
ATOM     27 C16  MOL A   1      14.209 -18.436  -0.001  1.00  0.00     0.064 C 
ATOM     28 C17  MOL A   1      14.726 -19.853   0.148  1.00  0.00     0.272 C 
ATOM     29 F18  MOL A   1      13.736 -20.781   0.419  1.00  0.00    -0.204 F 
ATOM     30 F19  MOL A   1      15.834 -19.959   0.974  1.00  0.00    -0.204 F 
ATOM     31 C20  MOL A   1      15.079 -19.757  -1.323  1.00  0.00     0.064 C 
ENDBRANCH  25  26
ENDBRANCH  20  25
BRANCH  24  32
ATOM     32 O25  MOL A   1      14.580 -15.395  -6.121  1.00  0.00    -0.493 OA
ATOM     33 C26  MOL A   1      13.477 -15.835  -6.906  1.00  0.00     0.078 C 
ENDBRANCH  24  32
ENDBRANCH  18  19
ENDBRANCH  17  18
ENDBRANCH  15  17
ENDBRANCH   8  14
ENDBRANCH   1   8
TORSDOF 10
ENDMDL
MODEL 487
REMARK VINA RESULT:    -6.889      6.300      9.522
REMARK INTER + INTRA:         -11.965
REMARK INTER:                 -11.264
REMARK INTRA:                  -0.701
REMARK UNBOUND:                -1.048
REMARK  10 active torsions:
REMARK  status: ('A' for Active; 'I' for Inactive)
REMARK   1   A    between atoms:  C27_1   and   C6_8  
REMARK   2   A    between atoms:  C6_8    and   C5_9  
REMARK   3   A    between atoms:  C5_9    and   C3_12 
REMARK   4   A    between atoms:  C6_8    and   N7_14 
REMARK   5   A    between atoms:  C8_15   and  C10_17 
REMARK   6   A    between atoms: C10_17   and  O11_18 
REMARK   7   A    between atoms: O11_18   and  C12_19 
REMARK   8   A    between atoms: C13_20   and  C14_25 
REMARK   9   A    between atoms: C14_25   and  N15_26 
REMARK   10  A    between atoms: C24_24   and  O25_32 
ROOT
ATOM      1 C27  MOL A   1      10.341 -18.114  -9.186  1.00  0.00    -0.024 A 
ATOM      2 C28  MOL A   1      10.558 -18.827 -10.379  1.00  0.00    -0.057 A 
ATOM      3 C29  MOL A   1       9.590 -18.827 -11.389  1.00  0.00    -0.061 A 
ATOM      4 C30  MOL A   1       8.397 -18.118 -11.218  1.00  0.00    -0.048 A 
ATOM      5 C31  MOL A   1       8.170 -17.402 -10.038  1.00  0.00     0.018 A 
ATOM      6 Br32 MOL A   1       6.548 -16.414  -9.814  1.00  0.00    -0.051 Br
ATOM      7 C33  MOL A   1       9.134 -17.404  -9.024  1.00  0.00    -0.043 A 
ENDROOT
BRANCH   1   8
ATOM      8  C6  MOL A   1      11.361 -18.177  -8.070  1.00  0.00     0.063 C 
BRANCH   8   9
ATOM      9  C5  MOL A   1      12.518 -17.203  -8.357  1.00  0.00     0.051 C 
BRANCH   9  12
ATOM     10  C1  MOL A   1      14.568 -15.531  -5.498  1.00  0.00     0.006 C 
ATOM     11  N2  MOL A   1      14.205 -16.326  -6.662  1.00  0.00    -0.359 N 
ATOM     12  C3  MOL A   1      12.859 -16.382  -7.147  1.00  0.00     0.222 C 
ATOM     13  O4  MOL A   1      11.948 -15.736  -6.561  1.00  0.00    -0.275 OA
ENDBRANCH   9  12
ENDBRANCH   8   9
BRANCH   8  14
ATOM     14  N7  MOL A   1      11.864 -19.547  -7.918  1.00  0.00    -0.346 N 
ATOM     15  C8  MOL A   1      11.268 -20.491  -7.027  1.00  0.00     0.258 C 
ATOM     16  O9  MOL A   1      10.277 -20.161  -6.322  1.00  0.00    -0.271 OA
BRANCH  15  17
ATOM     17 C10  MOL A   1      11.806 -21.887  -6.930  1.00  0.00     0.167 C 
BRANCH  17  18
ATOM     18 O11  MOL A   1      12.019 -22.431  -8.230  1.00  0.00    -0.480 OA
BRANCH  18  19
ATOM     19 C12  MOL A   1      11.378 -23.596  -8.660  1.00  0.00     0.166 A 
ATOM     20 C13  MOL A   1      10.160 -23.539  -9.377  1.00  0.00     0.012 A 
ATOM     21 C21  MOL A   1       9.592 -24.730  -9.858  1.00  0.00    -0.054 A 
ATOM     22 C22  MOL A   1      10.194 -25.960  -9.593  1.00  0.00    -0.058 A 
ATOM     23 C23  MOL A   1      11.369 -26.018  -8.843  1.00  0.00    -0.016 A 
ATOM     24 C24  MOL A   1      11.968 -24.836  -8.367  1.00  0.00     0.161 A 
BRANCH  20  25
ATOM     25 C14  MOL A   1       9.450 -22.229  -9.638  1.00  0.00     0.028 C 
BRANCH  25  26
ATOM     26 N15  MOL A   1       8.030 -22.325  -9.244  1.00  0.00    -0.287 NA
ATOM     27 C16  MOL A   1       7.176 -22.699 -10.384  1.00  0.00     0.064 C 
ATOM     28 C17  MOL A   1       6.463 -21.361 -10.384  1.00  0.00     0.272 C 
ATOM     29 F18  MOL A   1       5.126 -21.444 -10.037  1.00  0.00    -0.204 F 
ATOM     30 F19  MOL A   1       6.703 -20.602 -11.518  1.00  0.00    -0.204 F 
ATOM     31 C20  MOL A   1       7.369 -21.008  -9.221  1.00  0.00     0.064 C 
ENDBRANCH  25  26
ENDBRANCH  20  25
BRANCH  24  32
ATOM     32 O25  MOL A   1      13.148 -24.852  -7.609  1.00  0.00    -0.493 OA
ATOM     33 C26  MOL A   1      13.245 -24.404  -6.261  1.00  0.00     0.078 C 
ENDBRANCH  24  32
ENDBRANCH  18  19
ENDBRANCH  17  18
ENDBRANCH  15  17
ENDBRANCH   8  14
ENDBRANCH   1   8
TORSDOF 10
ENDMDL
MODEL 488
REMARK VINA RESULT:    -6.888      4.675      8.157
REMARK INTER + INTRA:         -11.964
REMARK INTER:                 -12.044
REMARK INTRA:                   0.080
REMARK UNBOUND:                -1.048
REMARK  10 active torsions:
REMARK  status: ('A' for Active; 'I' for Inactive)
REMARK   1   A    between atoms:  C27_1   and   C6_8  
REMARK   2   A    between atoms:  C6_8    and   C5_9  
REMARK   3   A    between atoms:  C5_9    and   C3_12 
REMARK   4   A    between atoms:  C6_8    and   N7_14 
REMARK   5   A    between atoms:  C8_15   and  C10_17 
REMARK   6   A    between atoms: C10_17   and  O11_18 
REMARK   7   A    between atoms: O11_18   and  C12_19 
REMARK   8   A    between atoms: C13_20   and  C14_25 
REMARK   9   A    between atoms: C14_25   and  N15_26 
REMARK   10  A    between atoms: C24_24   and  O25_32 
ROOT
ATOM      1 C27  MOL A   1       3.931 -14.326 -10.200  1.00  0.00    -0.024 A 
ATOM      2 C28  MOL A   1       2.750 -14.483  -9.452  1.00  0.00    -0.057 A 
ATOM      3 C29  MOL A   1       1.608 -13.739  -9.768  1.00  0.00    -0.061 A 
ATOM      4 C30  MOL A   1       1.634 -12.832 -10.831  1.00  0.00    -0.048 A 
ATOM      5 C31  MOL A   1       2.802 -12.669 -11.585  1.00  0.00     0.018 A 
ATOM      6 Br32 MOL A   1       2.830 -11.443 -13.054  1.00  0.00    -0.051 Br
ATOM      7 C33  MOL A   1       3.947 -13.407 -11.269  1.00  0.00    -0.043 A 
ENDROOT
BRANCH   1   8
ATOM      8  C6  MOL A   1       5.182 -15.081  -9.806  1.00  0.00     0.063 C 
BRANCH   8   9
ATOM      9  C5  MOL A   1       6.122 -15.214 -11.019  1.00  0.00     0.051 C 
BRANCH   9  12
ATOM     10  C1  MOL A   1       8.264 -18.406 -11.644  1.00  0.00     0.006 C 
ATOM     11  N2  MOL A   1       7.291 -17.336 -11.805  1.00  0.00    -0.359 N 
ATOM     12  C3  MOL A   1       7.127 -16.310 -10.819  1.00  0.00     0.222 C 
ATOM     13  O4  MOL A   1       7.832 -16.321  -9.773  1.00  0.00    -0.275 OA
ENDBRANCH   9  12
ENDBRANCH   8   9
BRANCH   8  14
ATOM     14  N7  MOL A   1       4.833 -16.404  -9.277  1.00  0.00    -0.346 N 
ATOM     15  C8  MOL A   1       4.998 -16.750  -7.901  1.00  0.00     0.258 C 
ATOM     16  O9  MOL A   1       5.470 -15.912  -7.087  1.00  0.00    -0.271 OA
BRANCH  15  17
ATOM     17 C10  MOL A   1       4.600 -18.109  -7.407  1.00  0.00     0.167 C 
BRANCH  17  18
ATOM     18 O11  MOL A   1       5.691 -19.019  -7.518  1.00  0.00    -0.480 OA
BRANCH  18  19
ATOM     19 C12  MOL A   1       5.689 -20.070  -8.439  1.00  0.00     0.166 A 
ATOM     20 C13  MOL A   1       4.525 -20.837  -8.672  1.00  0.00     0.012 A 
ATOM     21 C21  MOL A   1       4.546 -21.831  -9.664  1.00  0.00    -0.054 A 
ATOM     22 C22  MOL A   1       5.714 -22.094 -10.379  1.00  0.00    -0.058 A 
ATOM     23 C23  MOL A   1       6.876 -21.369 -10.113  1.00  0.00    -0.016 A 
ATOM     24 C24  MOL A   1       6.874 -20.355  -9.138  1.00  0.00     0.161 A 
BRANCH  20  25
ATOM     25 C14  MOL A   1       3.255 -20.618  -7.879  1.00  0.00     0.028 C 
BRANCH  25  26
ATOM     26 N15  MOL A   1       2.082 -21.088  -8.644  1.00  0.00    -0.287 NA
ATOM     27 C16  MOL A   1       0.823 -20.801  -7.935  1.00  0.00     0.064 C 
ATOM     28 C17  MOL A   1       0.522 -22.271  -7.724  1.00  0.00     0.272 C 
ATOM     29 F18  MOL A   1      -0.589 -22.716  -8.420  1.00  0.00    -0.204 F 
ATOM     30 F19  MOL A   1       0.543 -22.660  -6.394  1.00  0.00    -0.204 F 
ATOM     31 C20  MOL A   1       1.830 -22.526  -8.447  1.00  0.00     0.064 C 
ENDBRANCH  25  26
ENDBRANCH  20  25
BRANCH  24  32
ATOM     32 O25  MOL A   1       8.021 -19.605  -8.840  1.00  0.00    -0.493 OA
ATOM     33 C26  MOL A   1       9.272 -20.164  -8.455  1.00  0.00     0.078 C 
ENDBRANCH  24  32
ENDBRANCH  18  19
ENDBRANCH  17  18
ENDBRANCH  15  17
ENDBRANCH   8  14
ENDBRANCH   1   8
TORSDOF 10
ENDMDL
MODEL 489
REMARK VINA RESULT:    -6.885     10.309     13.432
REMARK INTER + INTRA:         -11.958
REMARK INTER:                 -10.756
REMARK INTRA:                  -1.202
REMARK UNBOUND:                -1.048
REMARK  10 active torsions:
REMARK  status: ('A' for Active; 'I' for Inactive)
REMARK   1   A    between atoms:  C27_1   and   C6_8  
REMARK   2   A    between atoms:  C6_8    and   C5_9  
REMARK   3   A    between atoms:  C5_9    and   C3_12 
REMARK   4   A    between atoms:  C6_8    and   N7_14 
REMARK   5   A    between atoms:  C8_15   and  C10_17 
REMARK   6   A    between atoms: C10_17   and  O11_18 
REMARK   7   A    between atoms: O11_18   and  C12_19 
REMARK   8   A    between atoms: C13_20   and  C14_25 
REMARK   9   A    between atoms: C14_25   and  N15_26 
REMARK   10  A    between atoms: C24_24   and  O25_32 
ROOT
ATOM      1 C27  MOL A   1      15.055 -18.357  -0.319  1.00  0.00    -0.024 A 
ATOM      2 C28  MOL A   1      13.899 -17.905   0.343  1.00  0.00    -0.057 A 
ATOM      3 C29  MOL A   1      13.133 -18.787   1.111  1.00  0.00    -0.061 A 
ATOM      4 C30  MOL A   1      13.511 -20.128   1.226  1.00  0.00    -0.048 A 
ATOM      5 C31  MOL A   1      14.661 -20.590   0.575  1.00  0.00     0.018 A 
ATOM      6 Br32 MOL A   1      15.191 -22.420   0.751  1.00  0.00    -0.051 Br
ATOM      7 C33  MOL A   1      15.426 -19.711  -0.198  1.00  0.00    -0.043 A 
ENDROOT
BRANCH   1   8
ATOM      8  C6  MOL A   1      15.837 -17.413  -1.207  1.00  0.00     0.063 C 
BRANCH   8   9
ATOM      9  C5  MOL A   1      14.964 -16.206  -1.593  1.00  0.00     0.051 C 
BRANCH   9  12
ATOM     10  C1  MOL A   1      16.789 -13.753   0.821  1.00  0.00     0.006 C 
ATOM     11  N2  MOL A   1      16.493 -14.891  -0.037  1.00  0.00    -0.359 N 
ATOM     12  C3  MOL A   1      15.234 -15.025  -0.706  1.00  0.00     0.222 C 
ATOM     13  O4  MOL A   1      14.342 -14.146  -0.556  1.00  0.00    -0.275 OA
ENDBRANCH   9  12
ENDBRANCH   8   9
BRANCH   8  14
ATOM     14  N7  MOL A   1      16.306 -18.115  -2.407  1.00  0.00    -0.346 N 
ATOM     15  C8  MOL A   1      17.230 -17.531  -3.328  1.00  0.00     0.258 C 
ATOM     16  O9  MOL A   1      17.669 -16.367  -3.134  1.00  0.00    -0.271 OA
BRANCH  15  17
ATOM     17 C10  MOL A   1      17.697 -18.303  -4.525  1.00  0.00     0.167 C 
BRANCH  17  18
ATOM     18 O11  MOL A   1      16.719 -18.258  -5.561  1.00  0.00    -0.480 OA
BRANCH  18  19
ATOM     19 C12  MOL A   1      17.060 -18.009  -6.893  1.00  0.00     0.166 A 
ATOM     20 C13  MOL A   1      16.780 -16.762  -7.498  1.00  0.00     0.012 A 
ATOM     21 C21  MOL A   1      17.212 -16.528  -8.814  1.00  0.00    -0.054 A 
ATOM     22 C22  MOL A   1      17.866 -17.528  -9.534  1.00  0.00    -0.058 A 
ATOM     23 C23  MOL A   1      18.096 -18.774  -8.952  1.00  0.00    -0.016 A 
ATOM     24 C24  MOL A   1      17.691 -19.026  -7.628  1.00  0.00     0.161 A 
BRANCH  20  25
ATOM     25 C14  MOL A   1      16.027 -15.673  -6.768  1.00  0.00     0.028 C 
BRANCH  25  26
ATOM     26 N15  MOL A   1      14.615 -15.642  -7.202  1.00  0.00    -0.287 NA
ATOM     27 C16  MOL A   1      13.918 -14.448  -6.694  1.00  0.00     0.064 C 
ATOM     28 C17  MOL A   1      13.002 -15.270  -5.810  1.00  0.00     0.272 C 
ATOM     29 F18  MOL A   1      11.673 -15.230  -6.197  1.00  0.00    -0.204 F 
ATOM     30 F19  MOL A   1      13.198 -15.059  -4.455  1.00  0.00    -0.204 F 
ATOM     31 C20  MOL A   1      13.752 -16.473  -6.346  1.00  0.00     0.064 C 
ENDBRANCH  25  26
ENDBRANCH  20  25
BRANCH  24  32
ATOM     32 O25  MOL A   1      17.903 -20.265  -7.006  1.00  0.00    -0.493 OA
ATOM     33 C26  MOL A   1      19.040 -21.093  -7.226  1.00  0.00     0.078 C 
ENDBRANCH  24  32
ENDBRANCH  18  19
ENDBRANCH  17  18
ENDBRANCH  15  17
ENDBRANCH   8  14
ENDBRANCH   1   8
TORSDOF 10
ENDMDL
MODEL 490
REMARK VINA RESULT:    -6.885      5.667      9.215
REMARK INTER + INTRA:         -11.958
REMARK INTER:                 -10.513
REMARK INTRA:                  -1.445
REMARK UNBOUND:                -1.048
REMARK  10 active torsions:
REMARK  status: ('A' for Active; 'I' for Inactive)
REMARK   1   A    between atoms:  C27_1   and   C6_8  
REMARK   2   A    between atoms:  C6_8    and   C5_9  
REMARK   3   A    between atoms:  C5_9    and   C3_12 
REMARK   4   A    between atoms:  C6_8    and   N7_14 
REMARK   5   A    between atoms:  C8_15   and  C10_17 
REMARK   6   A    between atoms: C10_17   and  O11_18 
REMARK   7   A    between atoms: O11_18   and  C12_19 
REMARK   8   A    between atoms: C13_20   and  C14_25 
REMARK   9   A    between atoms: C14_25   and  N15_26 
REMARK   10  A    between atoms: C24_24   and  O25_32 
ROOT
ATOM      1 C27  MOL A   1      15.872 -18.668  -8.622  1.00  0.00    -0.024 A 
ATOM      2 C28  MOL A   1      16.599 -17.694  -9.330  1.00  0.00    -0.057 A 
ATOM      3 C29  MOL A   1      17.673 -18.066 -10.145  1.00  0.00    -0.061 A 
ATOM      4 C30  MOL A   1      18.033 -19.411 -10.261  1.00  0.00    -0.048 A 
ATOM      5 C31  MOL A   1      17.316 -20.391  -9.565  1.00  0.00     0.018 A 
ATOM      6 Br32 MOL A   1      17.795 -22.235  -9.742  1.00  0.00    -0.051 Br
ATOM      7 C33  MOL A   1      16.245 -20.022  -8.745  1.00  0.00    -0.043 A 
ENDROOT
BRANCH   1   8
ATOM      8  C6  MOL A   1      14.758 -18.251  -7.686  1.00  0.00     0.063 C 
BRANCH   8   9
ATOM      9  C5  MOL A   1      15.321 -17.999  -6.276  1.00  0.00     0.051 C 
BRANCH   9  12
ATOM     10  C1  MOL A   1      13.613 -14.512  -5.966  1.00  0.00     0.006 C 
ATOM     11  N2  MOL A   1      14.167 -15.741  -6.515  1.00  0.00    -0.359 N 
ATOM     12  C3  MOL A   1      14.768 -16.737  -5.680  1.00  0.00     0.222 C 
ATOM     13  O4  MOL A   1      14.835 -16.560  -4.433  1.00  0.00    -0.275 OA
ENDBRANCH   9  12
ENDBRANCH   8   9
BRANCH   8  14
ATOM     14  N7  MOL A   1      13.714 -19.280  -7.649  1.00  0.00    -0.346 N 
ATOM     15  C8  MOL A   1      12.323 -18.969  -7.763  1.00  0.00     0.258 C 
ATOM     16  O9  MOL A   1      11.948 -17.774  -7.892  1.00  0.00    -0.271 OA
BRANCH  15  17
ATOM     17 C10  MOL A   1      11.298 -20.063  -7.745  1.00  0.00     0.167 C 
BRANCH  17  18
ATOM     18 O11  MOL A   1      11.004 -20.493  -9.072  1.00  0.00    -0.480 OA
BRANCH  18  19
ATOM     19 C12  MOL A   1       9.901 -21.301  -9.362  1.00  0.00     0.166 A 
ATOM     20 C13  MOL A   1       8.683 -20.743  -9.811  1.00  0.00     0.012 A 
ATOM     21 C21  MOL A   1       7.627 -21.598 -10.167  1.00  0.00    -0.054 A 
ATOM     22 C22  MOL A   1       7.759 -22.980 -10.034  1.00  0.00    -0.058 A 
ATOM     23 C23  MOL A   1       8.945 -23.527  -9.543  1.00  0.00    -0.016 A 
ATOM     24 C24  MOL A   1      10.024 -22.691  -9.199  1.00  0.00     0.161 A 
BRANCH  20  25
ATOM     25 C14  MOL A   1       8.483 -19.247  -9.918  1.00  0.00     0.028 C 
BRANCH  25  26
ATOM     26 N15  MOL A   1       8.038 -18.692  -8.623  1.00  0.00    -0.287 NA
ATOM     27 C16  MOL A   1       6.619 -18.300  -8.662  1.00  0.00     0.064 C 
ATOM     28 C17  MOL A   1       6.945 -16.829  -8.497  1.00  0.00     0.272 C 
ATOM     29 F18  MOL A   1       6.513 -16.295  -7.295  1.00  0.00    -0.204 F 
ATOM     30 F19  MOL A   1       6.621 -16.059  -9.602  1.00  0.00    -0.204 F 
ATOM     31 C20  MOL A   1       8.395 -17.271  -8.475  1.00  0.00     0.064 C 
ENDBRANCH  25  26
ENDBRANCH  20  25
BRANCH  24  32
ATOM     32 O25  MOL A   1      11.232 -23.200  -8.701  1.00  0.00    -0.493 OA
ATOM     33 C26  MOL A   1      11.504 -24.584  -8.506  1.00  0.00     0.078 C 
ENDBRANCH  24  32
ENDBRANCH  18  19
ENDBRANCH  17  18
ENDBRANCH  15  17
ENDBRANCH   8  14
ENDBRANCH   1   8
TORSDOF 10
ENDMDL
MODEL 491
REMARK VINA RESULT:    -6.884      7.870     11.793
REMARK INTER + INTRA:         -11.956
REMARK INTER:                  -9.748
REMARK INTRA:                  -2.208
REMARK UNBOUND:                -1.048
REMARK  10 active torsions:
REMARK  status: ('A' for Active; 'I' for Inactive)
REMARK   1   A    between atoms:  C27_1   and   C6_8  
REMARK   2   A    between atoms:  C6_8    and   C5_9  
REMARK   3   A    between atoms:  C5_9    and   C3_12 
REMARK   4   A    between atoms:  C6_8    and   N7_14 
REMARK   5   A    between atoms:  C8_15   and  C10_17 
REMARK   6   A    between atoms: C10_17   and  O11_18 
REMARK   7   A    between atoms: O11_18   and  C12_19 
REMARK   8   A    between atoms: C13_20   and  C14_25 
REMARK   9   A    between atoms: C14_25   and  N15_26 
REMARK   10  A    between atoms: C24_24   and  O25_32 
ROOT
ATOM      1 C27  MOL A   1      16.763 -17.489  -6.790  1.00  0.00    -0.024 A 
ATOM      2 C28  MOL A   1      17.654 -18.378  -6.161  1.00  0.00    -0.057 A 
ATOM      3 C29  MOL A   1      18.620 -19.059  -6.909  1.00  0.00    -0.061 A 
ATOM      4 C30  MOL A   1      18.706 -18.861  -8.290  1.00  0.00    -0.048 A 
ATOM      5 C31  MOL A   1      17.828 -17.977  -8.928  1.00  0.00     0.018 A 
ATOM      6 Br32 MOL A   1      17.961 -17.690 -10.814  1.00  0.00    -0.051 Br
ATOM      7 C33  MOL A   1      16.858 -17.298  -8.184  1.00  0.00    -0.043 A 
ENDROOT
BRANCH   1   8
ATOM      8  C6  MOL A   1      15.675 -16.812  -5.986  1.00  0.00     0.063 C 
BRANCH   8   9
ATOM      9  C5  MOL A   1      15.947 -16.984  -4.480  1.00  0.00     0.051 C 
BRANCH   9  12
ATOM     10  C1  MOL A   1      14.224 -13.693  -3.310  1.00  0.00     0.006 C 
ATOM     11  N2  MOL A   1      15.004 -14.653  -4.077  1.00  0.00    -0.359 N 
ATOM     12  C3  MOL A   1      15.144 -16.016  -3.661  1.00  0.00     0.222 C 
ATOM     13  O4  MOL A   1      14.589 -16.413  -2.601  1.00  0.00    -0.275 OA
ENDBRANCH   9  12
ENDBRANCH   8   9
BRANCH   8  14
ATOM     14  N7  MOL A   1      14.363 -17.363  -6.340  1.00  0.00    -0.346 N 
ATOM     15  C8  MOL A   1      13.312 -16.561  -6.883  1.00  0.00     0.258 C 
ATOM     16  O9  MOL A   1      13.485 -15.327  -7.066  1.00  0.00    -0.271 OA
BRANCH  15  17
ATOM     17 C10  MOL A   1      11.998 -17.181  -7.252  1.00  0.00     0.167 C 
BRANCH  17  18
ATOM     18 O11  MOL A   1      12.123 -17.937  -8.455  1.00  0.00    -0.480 OA
BRANCH  18  19
ATOM     19 C12  MOL A   1      11.434 -19.137  -8.651  1.00  0.00     0.166 A 
ATOM     20 C13  MOL A   1      11.933 -20.358  -8.143  1.00  0.00     0.012 A 
ATOM     21 C21  MOL A   1      11.168 -21.527  -8.295  1.00  0.00    -0.054 A 
ATOM     22 C22  MOL A   1       9.955 -21.494  -8.982  1.00  0.00    -0.058 A 
ATOM     23 C23  MOL A   1       9.489 -20.297  -9.526  1.00  0.00    -0.016 A 
ATOM     24 C24  MOL A   1      10.227 -19.110  -9.369  1.00  0.00     0.161 A 
BRANCH  20  25
ATOM     25 C14  MOL A   1      13.270 -20.442  -7.440  1.00  0.00     0.028 C 
BRANCH  25  26
ATOM     26 N15  MOL A   1      14.181 -21.347  -8.170  1.00  0.00    -0.287 NA
ATOM     27 C16  MOL A   1      14.652 -22.448  -7.314  1.00  0.00     0.064 C 
ATOM     28 C17  MOL A   1      16.086 -21.956  -7.345  1.00  0.00     0.272 C 
ATOM     29 F18  MOL A   1      16.951 -22.808  -8.009  1.00  0.00    -0.204 F 
ATOM     30 F19  MOL A   1      16.555 -21.528  -6.114  1.00  0.00    -0.204 F 
ATOM     31 C20  MOL A   1      15.560 -20.830  -8.214  1.00  0.00     0.064 C 
ENDBRANCH  25  26
ENDBRANCH  20  25
BRANCH  24  32
ATOM     32 O25  MOL A   1       9.795 -17.887  -9.902  1.00  0.00    -0.493 OA
ATOM     33 C26  MOL A   1       8.695 -17.134  -9.401  1.00  0.00     0.078 C 
ENDBRANCH  24  32
ENDBRANCH  18  19
ENDBRANCH  17  18
ENDBRANCH  15  17
ENDBRANCH   8  14
ENDBRANCH   1   8
TORSDOF 10
ENDMDL
MODEL 492
REMARK VINA RESULT:    -6.883      9.210     12.841
REMARK INTER + INTRA:         -11.955
REMARK INTER:                 -10.076
REMARK INTRA:                  -1.880
REMARK UNBOUND:                -1.048
REMARK  10 active torsions:
REMARK  status: ('A' for Active; 'I' for Inactive)
REMARK   1   A    between atoms:  C27_1   and   C6_8  
REMARK   2   A    between atoms:  C6_8    and   C5_9  
REMARK   3   A    between atoms:  C5_9    and   C3_12 
REMARK   4   A    between atoms:  C6_8    and   N7_14 
REMARK   5   A    between atoms:  C8_15   and  C10_17 
REMARK   6   A    between atoms: C10_17   and  O11_18 
REMARK   7   A    between atoms: O11_18   and  C12_19 
REMARK   8   A    between atoms: C13_20   and  C14_25 
REMARK   9   A    between atoms: C14_25   and  N15_26 
REMARK   10  A    between atoms: C24_24   and  O25_32 
ROOT
ATOM      1 C27  MOL A   1      15.405 -18.659  -2.420  1.00  0.00    -0.024 A 
ATOM      2 C28  MOL A   1      15.418 -20.025  -2.083  1.00  0.00    -0.057 A 
ATOM      3 C29  MOL A   1      14.950 -20.450  -0.835  1.00  0.00    -0.061 A 
ATOM      4 C30  MOL A   1      14.466 -19.518   0.087  1.00  0.00    -0.048 A 
ATOM      5 C31  MOL A   1      14.444 -18.156  -0.237  1.00  0.00     0.018 A 
ATOM      6 Br32 MOL A   1      13.761 -16.884   1.017  1.00  0.00    -0.051 Br
ATOM      7 C33  MOL A   1      14.916 -17.727  -1.482  1.00  0.00    -0.043 A 
ENDROOT
BRANCH   1   8
ATOM      8  C6  MOL A   1      15.980 -18.200  -3.743  1.00  0.00     0.063 C 
BRANCH   8   9
ATOM      9  C5  MOL A   1      15.231 -16.949  -4.238  1.00  0.00     0.051 C 
BRANCH   9  12
ATOM     10  C1  MOL A   1      18.006 -14.824  -5.957  1.00  0.00     0.006 C 
ATOM     11  N2  MOL A   1      17.083 -15.904  -5.639  1.00  0.00    -0.359 N 
ATOM     12  C3  MOL A   1      16.178 -15.822  -4.533  1.00  0.00     0.222 C 
ATOM     13  O4  MOL A   1      16.168 -14.796  -3.799  1.00  0.00    -0.275 OA
ENDBRANCH   9  12
ENDBRANCH   8   9
BRANCH   8  14
ATOM     14  N7  MOL A   1      15.896 -19.278  -4.735  1.00  0.00    -0.346 N 
ATOM     15  C8  MOL A   1      17.036 -19.750  -5.455  1.00  0.00     0.258 C 
ATOM     16  O9  MOL A   1      18.169 -19.234  -5.261  1.00  0.00    -0.271 OA
BRANCH  15  17
ATOM     17 C10  MOL A   1      16.899 -20.873  -6.440  1.00  0.00     0.167 C 
BRANCH  17  18
ATOM     18 O11  MOL A   1      16.283 -20.412  -7.640  1.00  0.00    -0.480 OA
BRANCH  18  19
ATOM     19 C12  MOL A   1      16.802 -19.345  -8.378  1.00  0.00     0.166 A 
ATOM     20 C13  MOL A   1      16.108 -18.117  -8.474  1.00  0.00     0.012 A 
ATOM     21 C21  MOL A   1      16.704 -17.046  -9.160  1.00  0.00    -0.054 A 
ATOM     22 C22  MOL A   1      17.943 -17.204  -9.781  1.00  0.00    -0.058 A 
ATOM     23 C23  MOL A   1      18.602 -18.432  -9.727  1.00  0.00    -0.016 A 
ATOM     24 C24  MOL A   1      18.035 -19.514  -9.029  1.00  0.00     0.161 A 
BRANCH  20  25
ATOM     25 C14  MOL A   1      14.739 -17.925  -7.859  1.00  0.00     0.028 C 
BRANCH  25  26
ATOM     26 N15  MOL A   1      13.684 -18.167  -8.864  1.00  0.00    -0.287 NA
ATOM     27 C16  MOL A   1      12.476 -17.373  -8.584  1.00  0.00     0.064 C 
ATOM     28 C17  MOL A   1      11.644 -18.606  -8.291  1.00  0.00     0.272 C 
ATOM     29 F18  MOL A   1      10.639 -18.830  -9.216  1.00  0.00    -0.204 F 
ATOM     30 F19  MOL A   1      11.225 -18.696  -6.974  1.00  0.00    -0.204 F 
ATOM     31 C20  MOL A   1      12.912 -19.388  -8.575  1.00  0.00     0.064 C 
ENDBRANCH  25  26
ENDBRANCH  20  25
BRANCH  24  32
ATOM     32 O25  MOL A   1      18.664 -20.764  -8.952  1.00  0.00    -0.493 OA
ATOM     33 C26  MOL A   1      20.048 -20.987  -9.206  1.00  0.00     0.078 C 
ENDBRANCH  24  32
ENDBRANCH  18  19
ENDBRANCH  17  18
ENDBRANCH  15  17
ENDBRANCH   8  14
ENDBRANCH   1   8
TORSDOF 10
ENDMDL
MODEL 493
REMARK VINA RESULT:    -6.882      8.197     12.720
REMARK INTER + INTRA:         -11.954
REMARK INTER:                 -10.481
REMARK INTRA:                  -1.473
REMARK UNBOUND:                -1.048
REMARK  10 active torsions:
REMARK  status: ('A' for Active; 'I' for Inactive)
REMARK   1   A    between atoms:  C27_1   and   C6_8  
REMARK   2   A    between atoms:  C6_8    and   C5_9  
REMARK   3   A    between atoms:  C5_9    and   C3_12 
REMARK   4   A    between atoms:  C6_8    and   N7_14 
REMARK   5   A    between atoms:  C8_15   and  C10_17 
REMARK   6   A    between atoms: C10_17   and  O11_18 
REMARK   7   A    between atoms: O11_18   and  C12_19 
REMARK   8   A    between atoms: C13_20   and  C14_25 
REMARK   9   A    between atoms: C14_25   and  N15_26 
REMARK   10  A    between atoms: C24_24   and  O25_32 
ROOT
ATOM      1 C27  MOL A   1      11.731 -18.298  -8.772  1.00  0.00    -0.024 A 
ATOM      2 C28  MOL A   1      12.024 -18.510 -10.131  1.00  0.00    -0.057 A 
ATOM      3 C29  MOL A   1      10.995 -18.764 -11.045  1.00  0.00    -0.061 A 
ATOM      4 C30  MOL A   1       9.667 -18.807 -10.612  1.00  0.00    -0.048 A 
ATOM      5 C31  MOL A   1       9.362 -18.594  -9.263  1.00  0.00     0.018 A 
ATOM      6 Br32 MOL A   1       7.542 -18.633  -8.674  1.00  0.00    -0.051 Br
ATOM      7 C33  MOL A   1      10.389 -18.346  -8.345  1.00  0.00    -0.043 A 
ENDROOT
BRANCH   1   8
ATOM      8  C6  MOL A   1      12.855 -18.097  -7.778  1.00  0.00     0.063 C 
BRANCH   8   9
ATOM      9  C5  MOL A   1      13.554 -16.750  -8.038  1.00  0.00     0.051 C 
BRANCH   9  12
ATOM     10  C1  MOL A   1      14.900 -15.991  -4.462  1.00  0.00     0.006 C 
ATOM     11  N2  MOL A   1      14.590 -16.669  -5.712  1.00  0.00    -0.359 N 
ATOM     12  C3  MOL A   1      13.849 -16.027  -6.756  1.00  0.00     0.222 C 
ATOM     13  O4  MOL A   1      13.441 -14.843  -6.605  1.00  0.00    -0.275 OA
ENDBRANCH   9  12
ENDBRANCH   8   9
BRANCH   8  14
ATOM     14  N7  MOL A   1      13.815 -19.202  -7.866  1.00  0.00    -0.346 N 
ATOM     15  C8  MOL A   1      13.737 -20.357  -7.029  1.00  0.00     0.258 C 
ATOM     16  O9  MOL A   1      12.826 -20.455  -6.164  1.00  0.00    -0.271 OA
BRANCH  15  17
ATOM     17 C10  MOL A   1      14.730 -21.471  -7.178  1.00  0.00     0.167 C 
BRANCH  17  18
ATOM     18 O11  MOL A   1      15.655 -21.464  -6.094  1.00  0.00    -0.480 OA
BRANCH  18  19
ATOM     19 C12  MOL A   1      16.640 -20.481  -5.967  1.00  0.00     0.166 A 
ATOM     20 C13  MOL A   1      16.654 -19.599  -4.862  1.00  0.00     0.012 A 
ATOM     21 C21  MOL A   1      17.708 -18.679  -4.733  1.00  0.00    -0.054 A 
ATOM     22 C22  MOL A   1      18.703 -18.601  -5.708  1.00  0.00    -0.058 A 
ATOM     23 C23  MOL A   1      18.660 -19.438  -6.823  1.00  0.00    -0.016 A 
ATOM     24 C24  MOL A   1      17.625 -20.382  -6.963  1.00  0.00     0.161 A 
BRANCH  20  25
ATOM     25 C14  MOL A   1      15.564 -19.617  -3.814  1.00  0.00     0.028 C 
BRANCH  25  26
ATOM     26 N15  MOL A   1      16.148 -19.755  -2.464  1.00  0.00    -0.287 NA
ATOM     27 C16  MOL A   1      15.173 -20.299  -1.504  1.00  0.00     0.064 C 
ATOM     28 C17  MOL A   1      15.135 -19.013  -0.702  1.00  0.00     0.272 C 
ATOM     29 F18  MOL A   1      15.662 -19.137   0.572  1.00  0.00    -0.204 F 
ATOM     30 F19  MOL A   1      13.911 -18.366  -0.743  1.00  0.00    -0.204 F 
ATOM     31 C20  MOL A   1      16.129 -18.485  -1.718  1.00  0.00     0.064 C 
ENDBRANCH  25  26
ENDBRANCH  20  25
BRANCH  24  32
ATOM     32 O25  MOL A   1      17.545 -21.241  -8.069  1.00  0.00    -0.493 OA
ATOM     33 C26  MOL A   1      18.333 -22.415  -8.236  1.00  0.00     0.078 C 
ENDBRANCH  24  32
ENDBRANCH  18  19
ENDBRANCH  17  18
ENDBRANCH  15  17
ENDBRANCH   8  14
ENDBRANCH   1   8
TORSDOF 10
ENDMDL
MODEL 494
REMARK VINA RESULT:    -6.882      6.409      9.513
REMARK INTER + INTRA:         -11.954
REMARK INTER:                 -11.386
REMARK INTRA:                  -0.568
REMARK UNBOUND:                -1.048
REMARK  10 active torsions:
REMARK  status: ('A' for Active; 'I' for Inactive)
REMARK   1   A    between atoms:  C27_1   and   C6_8  
REMARK   2   A    between atoms:  C6_8    and   C5_9  
REMARK   3   A    between atoms:  C5_9    and   C3_12 
REMARK   4   A    between atoms:  C6_8    and   N7_14 
REMARK   5   A    between atoms:  C8_15   and  C10_17 
REMARK   6   A    between atoms: C10_17   and  O11_18 
REMARK   7   A    between atoms: O11_18   and  C12_19 
REMARK   8   A    between atoms: C13_20   and  C14_25 
REMARK   9   A    between atoms: C14_25   and  N15_26 
REMARK   10  A    between atoms: C24_24   and  O25_32 
ROOT
ATOM      1 C27  MOL A   1       0.196 -23.164  -9.832  1.00  0.00    -0.024 A 
ATOM      2 C28  MOL A   1      -0.737 -24.209  -9.708  1.00  0.00    -0.057 A 
ATOM      3 C29  MOL A   1      -1.779 -24.340 -10.632  1.00  0.00    -0.061 A 
ATOM      4 C30  MOL A   1      -1.900 -23.431 -11.687  1.00  0.00    -0.048 A 
ATOM      5 C31  MOL A   1      -0.977 -22.389 -11.823  1.00  0.00     0.018 A 
ATOM      6 Br32 MOL A   1      -1.130 -21.158 -13.280  1.00  0.00    -0.051 Br
ATOM      7 C33  MOL A   1       0.063 -22.251 -10.898  1.00  0.00    -0.043 A 
ENDROOT
BRANCH   1   8
ATOM      8  C6  MOL A   1       1.277 -22.986  -8.787  1.00  0.00     0.063 C 
BRANCH   8   9
ATOM      9  C5  MOL A   1       0.641 -22.737  -7.408  1.00  0.00     0.051 C 
BRANCH   9  12
ATOM     10  C1  MOL A   1      -0.858 -19.155  -7.720  1.00  0.00     0.006 C 
ATOM     11  N2  MOL A   1       0.082 -20.265  -7.659  1.00  0.00    -0.359 N 
ATOM     12  C3  MOL A   1      -0.354 -21.613  -7.454  1.00  0.00     0.222 C 
ATOM     13  O4  MOL A   1      -1.581 -21.866  -7.314  1.00  0.00    -0.275 OA
ENDBRANCH   9  12
ENDBRANCH   8   9
BRANCH   8  14
ATOM     14  N7  MOL A   1       2.161 -21.875  -9.156  1.00  0.00    -0.346 N 
ATOM     15  C8  MOL A   1       3.355 -21.570  -8.431  1.00  0.00     0.258 C 
ATOM     16  O9  MOL A   1       3.681 -22.257  -7.426  1.00  0.00    -0.271 OA
BRANCH  15  17
ATOM     17 C10  MOL A   1       4.238 -20.439  -8.866  1.00  0.00     0.167 C 
BRANCH  17  18
ATOM     18 O11  MOL A   1       5.060 -20.004  -7.786  1.00  0.00    -0.480 OA
BRANCH  18  19
ATOM     19 C12  MOL A   1       6.097 -19.085  -7.967  1.00  0.00     0.166 A 
ATOM     20 C13  MOL A   1       7.388 -19.507  -8.360  1.00  0.00     0.012 A 
ATOM     21 C21  MOL A   1       8.378 -18.542  -8.608  1.00  0.00    -0.054 A 
ATOM     22 C22  MOL A   1       8.108 -17.186  -8.422  1.00  0.00    -0.058 A 
ATOM     23 C23  MOL A   1       6.849 -16.775  -7.985  1.00  0.00    -0.016 A 
ATOM     24 C24  MOL A   1       5.834 -17.722  -7.750  1.00  0.00     0.161 A 
BRANCH  20  25
ATOM     25 C14  MOL A   1       7.733 -20.971  -8.520  1.00  0.00     0.028 C 
BRANCH  25  26
ATOM     26 N15  MOL A   1       8.056 -21.273  -9.930  1.00  0.00    -0.287 NA
ATOM     27 C16  MOL A   1       7.810 -22.689 -10.250  1.00  0.00     0.064 C 
ATOM     28 C17  MOL A   1       9.282 -22.970 -10.479  1.00  0.00     0.272 C 
ATOM     29 F18  MOL A   1       9.592 -23.274 -11.793  1.00  0.00    -0.204 F 
ATOM     30 F19  MOL A   1       9.834 -23.842  -9.555  1.00  0.00    -0.204 F 
ATOM     31 C20  MOL A   1       9.496 -21.510 -10.131  1.00  0.00     0.064 C 
ENDBRANCH  25  26
ENDBRANCH  20  25
BRANCH  24  32
ATOM     32 O25  MOL A   1       4.555 -17.351  -7.310  1.00  0.00    -0.493 OA
ATOM     33 C26  MOL A   1       4.256 -16.129  -6.643  1.00  0.00     0.078 C 
ENDBRANCH  24  32
ENDBRANCH  18  19
ENDBRANCH  17  18
ENDBRANCH  15  17
ENDBRANCH   8  14
ENDBRANCH   1   8
TORSDOF 10
ENDMDL
MODEL 495
REMARK VINA RESULT:    -6.882      7.092      9.882
REMARK INTER + INTRA:         -11.953
REMARK INTER:                 -10.790
REMARK INTRA:                  -1.163
REMARK UNBOUND:                -1.048
REMARK  10 active torsions:
REMARK  status: ('A' for Active; 'I' for Inactive)
REMARK   1   A    between atoms:  C27_1   and   C6_8  
REMARK   2   A    between atoms:  C6_8    and   C5_9  
REMARK   3   A    between atoms:  C5_9    and   C3_12 
REMARK   4   A    between atoms:  C6_8    and   N7_14 
REMARK   5   A    between atoms:  C8_15   and  C10_17 
REMARK   6   A    between atoms: C10_17   and  O11_18 
REMARK   7   A    between atoms: O11_18   and  C12_19 
REMARK   8   A    between atoms: C13_20   and  C14_25 
REMARK   9   A    between atoms: C14_25   and  N15_26 
REMARK   10  A    between atoms: C24_24   and  O25_32 
ROOT
ATOM      1 C27  MOL A   1       6.810 -21.487  -9.957  1.00  0.00    -0.024 A 
ATOM      2 C28  MOL A   1       5.864 -21.945 -10.892  1.00  0.00    -0.057 A 
ATOM      3 C29  MOL A   1       4.540 -22.178 -10.502  1.00  0.00    -0.061 A 
ATOM      4 C30  MOL A   1       4.149 -21.957  -9.179  1.00  0.00    -0.048 A 
ATOM      5 C31  MOL A   1       5.080 -21.498  -8.240  1.00  0.00     0.018 A 
ATOM      6 Br32 MOL A   1       4.539 -21.174  -6.434  1.00  0.00    -0.051 Br
ATOM      7 C33  MOL A   1       6.405 -21.269  -8.624  1.00  0.00    -0.043 A 
ENDROOT
BRANCH   1   8
ATOM      8  C6  MOL A   1       8.255 -21.307 -10.369  1.00  0.00     0.063 C 
BRANCH   8   9
ATOM      9  C5  MOL A   1       8.726 -22.524 -11.185  1.00  0.00     0.051 C 
BRANCH   9  12
ATOM     10  C1  MOL A   1       9.807 -25.260  -8.631  1.00  0.00     0.006 C 
ATOM     11  N2  MOL A   1       8.998 -24.354  -9.435  1.00  0.00    -0.359 N 
ATOM     12  C3  MOL A   1       9.588 -23.438 -10.363  1.00  0.00     0.222 C 
ATOM     13  O4  MOL A   1      10.842 -23.395 -10.499  1.00  0.00    -0.275 OA
ENDBRANCH   9  12
ENDBRANCH   8   9
BRANCH   8  14
ATOM     14  N7  MOL A   1       9.102 -21.120  -9.186  1.00  0.00    -0.346 N 
ATOM     15  C8  MOL A   1      10.109 -20.109  -9.113  1.00  0.00     0.258 C 
ATOM     16  O9  MOL A   1      10.309 -19.340 -10.090  1.00  0.00    -0.271 OA
BRANCH  15  17
ATOM     17 C10  MOL A   1      10.929 -19.944  -7.868  1.00  0.00     0.167 C 
BRANCH  17  18
ATOM     18 O11  MOL A   1      12.312 -19.825  -8.194  1.00  0.00    -0.480 OA
BRANCH  18  19
ATOM     19 C12  MOL A   1      13.319 -20.138  -7.277  1.00  0.00     0.166 A 
ATOM     20 C13  MOL A   1      14.060 -19.122  -6.630  1.00  0.00     0.012 A 
ATOM     21 C21  MOL A   1      15.008 -19.480  -5.657  1.00  0.00    -0.054 A 
ATOM     22 C22  MOL A   1      15.252 -20.822  -5.366  1.00  0.00    -0.058 A 
ATOM     23 C23  MOL A   1      14.556 -21.824  -6.042  1.00  0.00    -0.016 A 
ATOM     24 C24  MOL A   1      13.587 -21.490  -7.006  1.00  0.00     0.161 A 
BRANCH  20  25
ATOM     25 C14  MOL A   1      13.860 -17.659  -6.957  1.00  0.00     0.028 C 
BRANCH  25  26
ATOM     26 N15  MOL A   1      15.157 -16.952  -6.969  1.00  0.00    -0.287 NA
ATOM     27 C16  MOL A   1      15.034 -15.587  -6.431  1.00  0.00     0.064 C 
ATOM     28 C17  MOL A   1      15.357 -14.951  -7.769  1.00  0.00     0.272 C 
ATOM     29 F18  MOL A   1      16.561 -14.269  -7.785  1.00  0.00    -0.204 F 
ATOM     30 F19  MOL A   1      14.302 -14.241  -8.318  1.00  0.00    -0.204 F 
ATOM     31 C20  MOL A   1      15.461 -16.372  -8.289  1.00  0.00     0.064 C 
ENDBRANCH  25  26
ENDBRANCH  20  25
BRANCH  24  32
ATOM     32 O25  MOL A   1      12.866 -22.467  -7.709  1.00  0.00    -0.493 OA
ATOM     33 C26  MOL A   1      13.416 -23.694  -8.175  1.00  0.00     0.078 C 
ENDBRANCH  24  32
ENDBRANCH  18  19
ENDBRANCH  17  18
ENDBRANCH  15  17
ENDBRANCH   8  14
ENDBRANCH   1   8
TORSDOF 10
ENDMDL
MODEL 496
REMARK VINA RESULT:    -6.882      4.510      8.617
REMARK INTER + INTRA:         -11.953
REMARK INTER:                 -12.459
REMARK INTRA:                   0.506
REMARK UNBOUND:                -1.048
REMARK  10 active torsions:
REMARK  status: ('A' for Active; 'I' for Inactive)
REMARK   1   A    between atoms:  C27_1   and   C6_8  
REMARK   2   A    between atoms:  C6_8    and   C5_9  
REMARK   3   A    between atoms:  C5_9    and   C3_12 
REMARK   4   A    between atoms:  C6_8    and   N7_14 
REMARK   5   A    between atoms:  C8_15   and  C10_17 
REMARK   6   A    between atoms: C10_17   and  O11_18 
REMARK   7   A    between atoms: O11_18   and  C12_19 
REMARK   8   A    between atoms: C13_20   and  C14_25 
REMARK   9   A    between atoms: C14_25   and  N15_26 
REMARK   10  A    between atoms: C24_24   and  O25_32 
ROOT
ATOM      1 C27  MOL A   1       3.725 -13.485 -11.516  1.00  0.00    -0.024 A 
ATOM      2 C28  MOL A   1       4.666 -13.448 -12.561  1.00  0.00    -0.057 A 
ATOM      3 C29  MOL A   1       4.589 -12.460 -13.548  1.00  0.00    -0.061 A 
ATOM      4 C30  MOL A   1       3.574 -11.500 -13.502  1.00  0.00    -0.048 A 
ATOM      5 C31  MOL A   1       2.634 -11.523 -12.466  1.00  0.00     0.018 A 
ATOM      6 Br32 MOL A   1       1.258 -10.196 -12.391  1.00  0.00    -0.051 Br
ATOM      7 C33  MOL A   1       2.704 -12.513 -11.480  1.00  0.00    -0.043 A 
ENDROOT
BRANCH   1   8
ATOM      8  C6  MOL A   1       3.772 -14.600 -10.494  1.00  0.00     0.063 C 
BRANCH   8   9
ATOM      9  C5  MOL A   1       2.863 -14.259  -9.299  1.00  0.00     0.051 C 
BRANCH   9  12
ATOM     10  C1  MOL A   1       4.701 -16.563  -6.752  1.00  0.00     0.006 C 
ATOM     11  N2  MOL A   1       4.427 -15.678  -7.875  1.00  0.00    -0.359 N 
ATOM     12  C3  MOL A   1       3.111 -15.179  -8.139  1.00  0.00     0.222 C 
ATOM     13  O4  MOL A   1       2.149 -15.507  -7.392  1.00  0.00    -0.275 OA
ENDBRANCH   9  12
ENDBRANCH   8   9
BRANCH   8  14
ATOM     14  N7  MOL A   1       5.151 -14.823 -10.047  1.00  0.00    -0.346 N 
ATOM     15  C8  MOL A   1       6.037 -15.730 -10.707  1.00  0.00     0.258 C 
ATOM     16  O9  MOL A   1       5.644 -16.386 -11.708  1.00  0.00    -0.271 OA
BRANCH  15  17
ATOM     17 C10  MOL A   1       7.446 -15.900 -10.224  1.00  0.00     0.167 C 
BRANCH  17  18
ATOM     18 O11  MOL A   1       7.541 -17.020  -9.348  1.00  0.00    -0.480 OA
BRANCH  18  19
ATOM     19 C12  MOL A   1       8.591 -17.939  -9.432  1.00  0.00     0.166 A 
ATOM     20 C13  MOL A   1       8.451 -19.144 -10.158  1.00  0.00     0.012 A 
ATOM     21 C21  MOL A   1       9.557 -20.002 -10.282  1.00  0.00    -0.054 A 
ATOM     22 C22  MOL A   1      10.765 -19.694  -9.657  1.00  0.00    -0.058 A 
ATOM     23 C23  MOL A   1      10.886 -18.529  -8.899  1.00  0.00    -0.016 A 
ATOM     24 C24  MOL A   1       9.798 -17.645  -8.777  1.00  0.00     0.161 A 
BRANCH  20  25
ATOM     25 C14  MOL A   1       7.141 -19.537 -10.805  1.00  0.00     0.028 C 
BRANCH  25  26
ATOM     26 N15  MOL A   1       6.164 -19.954  -9.779  1.00  0.00    -0.287 NA
ATOM     27 C16  MOL A   1       6.831 -20.385  -8.539  1.00  0.00     0.064 C 
ATOM     28 C17  MOL A   1       6.367 -21.819  -8.701  1.00  0.00     0.272 C 
ATOM     29 F18  MOL A   1       5.466 -22.225  -7.732  1.00  0.00    -0.204 F 
ATOM     30 F19  MOL A   1       7.398 -22.718  -8.921  1.00  0.00    -0.204 F 
ATOM     31 C20  MOL A   1       5.705 -21.339  -9.978  1.00  0.00     0.064 C 
ENDBRANCH  25  26
ENDBRANCH  20  25
BRANCH  24  32
ATOM     32 O25  MOL A   1       9.877 -16.465  -8.024  1.00  0.00    -0.493 OA
ATOM     33 C26  MOL A   1      10.690 -16.301  -6.867  1.00  0.00     0.078 C 
ENDBRANCH  24  32
ENDBRANCH  18  19
ENDBRANCH  17  18
ENDBRANCH  15  17
ENDBRANCH   8  14
ENDBRANCH   1   8
TORSDOF 10
ENDMDL
MODEL 497
REMARK VINA RESULT:    -6.879      6.925     11.161
REMARK INTER + INTRA:         -11.949
REMARK INTER:                 -10.652
REMARK INTRA:                  -1.297
REMARK UNBOUND:                -1.048
REMARK  10 active torsions:
REMARK  status: ('A' for Active; 'I' for Inactive)
REMARK   1   A    between atoms:  C27_1   and   C6_8  
REMARK   2   A    between atoms:  C6_8    and   C5_9  
REMARK   3   A    between atoms:  C5_9    and   C3_12 
REMARK   4   A    between atoms:  C6_8    and   N7_14 
REMARK   5   A    between atoms:  C8_15   and  C10_17 
REMARK   6   A    between atoms: C10_17   and  O11_18 
REMARK   7   A    between atoms: O11_18   and  C12_19 
REMARK   8   A    between atoms: C13_20   and  C14_25 
REMARK   9   A    between atoms: C14_25   and  N15_26 
REMARK   10  A    between atoms: C24_24   and  O25_32 
ROOT
ATOM      1 C27  MOL A   1      12.421 -19.983  -7.412  1.00  0.00    -0.024 A 
ATOM      2 C28  MOL A   1      13.180 -20.054  -6.230  1.00  0.00    -0.057 A 
ATOM      3 C29  MOL A   1      13.518 -21.295  -5.680  1.00  0.00    -0.061 A 
ATOM      4 C30  MOL A   1      13.103 -22.475  -6.303  1.00  0.00    -0.048 A 
ATOM      5 C31  MOL A   1      12.350 -22.418  -7.481  1.00  0.00     0.018 A 
ATOM      6 Br32 MOL A   1      11.801 -24.034  -8.346  1.00  0.00    -0.051 Br
ATOM      7 C33  MOL A   1      12.006 -21.179  -8.031  1.00  0.00    -0.043 A 
ENDROOT
BRANCH   1   8
ATOM      8  C6  MOL A   1      11.998 -18.637  -7.961  1.00  0.00     0.063 C 
BRANCH   8   9
ATOM      9  C5  MOL A   1      12.218 -18.596  -9.484  1.00  0.00     0.051 C 
BRANCH   9  12
ATOM     10  C1  MOL A   1       8.464 -17.898 -10.250  1.00  0.00     0.006 C 
ATOM     11  N2  MOL A   1       9.737 -18.028  -9.556  1.00  0.00    -0.359 N 
ATOM     12  C3  MOL A   1      10.918 -18.483 -10.225  1.00  0.00     0.222 C 
ATOM     13  O4  MOL A   1      10.874 -18.789 -11.448  1.00  0.00    -0.275 OA
ENDBRANCH   9  12
ENDBRANCH   8   9
BRANCH   8  14
ATOM     14  N7  MOL A   1      12.747 -17.562  -7.301  1.00  0.00    -0.346 N 
ATOM     15  C8  MOL A   1      12.109 -16.407  -6.750  1.00  0.00     0.258 C 
ATOM     16  O9  MOL A   1      10.859 -16.275  -6.827  1.00  0.00    -0.271 OA
BRANCH  15  17
ATOM     17 C10  MOL A   1      12.920 -15.349  -6.063  1.00  0.00     0.167 C 
BRANCH  17  18
ATOM     18 O11  MOL A   1      14.311 -15.644  -6.162  1.00  0.00    -0.480 OA
BRANCH  18  19
ATOM     19 C12  MOL A   1      15.020 -16.232  -5.111  1.00  0.00     0.166 A 
ATOM     20 C13  MOL A   1      15.913 -17.304  -5.341  1.00  0.00     0.012 A 
ATOM     21 C21  MOL A   1      16.664 -17.812  -4.268  1.00  0.00    -0.054 A 
ATOM     22 C22  MOL A   1      16.498 -17.299  -2.981  1.00  0.00    -0.058 A 
ATOM     23 C23  MOL A   1      15.580 -16.275  -2.748  1.00  0.00    -0.016 A 
ATOM     24 C24  MOL A   1      14.831 -15.737  -3.810  1.00  0.00     0.161 A 
BRANCH  20  25
ATOM     25 C14  MOL A   1      16.080 -17.921  -6.712  1.00  0.00     0.028 C 
BRANCH  25  26
ATOM     26 N15  MOL A   1      17.167 -17.248  -7.451  1.00  0.00    -0.287 NA
ATOM     27 C16  MOL A   1      16.647 -16.470  -8.588  1.00  0.00     0.064 C 
ATOM     28 C17  MOL A   1      17.323 -17.367  -9.606  1.00  0.00     0.272 C 
ATOM     29 F18  MOL A   1      18.329 -16.738 -10.319  1.00  0.00    -0.204 F 
ATOM     30 F19  MOL A   1      16.437 -18.081 -10.396  1.00  0.00    -0.204 F 
ATOM     31 C20  MOL A   1      17.828 -18.150  -8.410  1.00  0.00     0.064 C 
ENDBRANCH  25  26
ENDBRANCH  20  25
BRANCH  24  32
ATOM     32 O25  MOL A   1      13.897 -14.708  -3.618  1.00  0.00    -0.493 OA
ATOM     33 C26  MOL A   1      13.969 -13.740  -2.576  1.00  0.00     0.078 C 
ENDBRANCH  24  32
ENDBRANCH  18  19
ENDBRANCH  17  18
ENDBRANCH  15  17
ENDBRANCH   8  14
ENDBRANCH   1   8
TORSDOF 10
ENDMDL
MODEL 498
REMARK VINA RESULT:    -6.877      5.122      8.188
REMARK INTER + INTRA:         -11.946
REMARK INTER:                 -10.515
REMARK INTRA:                  -1.430
REMARK UNBOUND:                -1.048
REMARK  10 active torsions:
REMARK  status: ('A' for Active; 'I' for Inactive)
REMARK   1   A    between atoms:  C27_1   and   C6_8  
REMARK   2   A    between atoms:  C6_8    and   C5_9  
REMARK   3   A    between atoms:  C5_9    and   C3_12 
REMARK   4   A    between atoms:  C6_8    and   N7_14 
REMARK   5   A    between atoms:  C8_15   and  C10_17 
REMARK   6   A    between atoms: C10_17   and  O11_18 
REMARK   7   A    between atoms: O11_18   and  C12_19 
REMARK   8   A    between atoms: C13_20   and  C14_25 
REMARK   9   A    between atoms: C14_25   and  N15_26 
REMARK   10  A    between atoms: C24_24   and  O25_32 
ROOT
ATOM      1 C27  MOL A   1      14.492 -20.166  -7.667  1.00  0.00    -0.024 A 
ATOM      2 C28  MOL A   1      14.447 -20.630  -6.340  1.00  0.00    -0.057 A 
ATOM      3 C29  MOL A   1      15.242 -21.711  -5.942  1.00  0.00    -0.061 A 
ATOM      4 C30  MOL A   1      16.087 -22.337  -6.862  1.00  0.00    -0.048 A 
ATOM      5 C31  MOL A   1      16.144 -21.883  -8.184  1.00  0.00     0.018 A 
ATOM      6 Br32 MOL A   1      17.317 -22.727  -9.437  1.00  0.00    -0.051 Br
ATOM      7 C33  MOL A   1      15.347 -20.806  -8.587  1.00  0.00    -0.043 A 
ENDROOT
BRANCH   1   8
ATOM      8  C6  MOL A   1      13.577 -19.044  -8.108  1.00  0.00     0.063 C 
BRANCH   8   9
ATOM      9  C5  MOL A   1      13.263 -18.121  -6.918  1.00  0.00     0.051 C 
BRANCH   9  12
ATOM     10  C1  MOL A   1      14.782 -14.702  -8.002  1.00  0.00     0.006 C 
ATOM     11  N2  MOL A   1      13.970 -15.909  -7.965  1.00  0.00    -0.359 N 
ATOM     12  C3  MOL A   1      14.123 -16.890  -6.933  1.00  0.00     0.222 C 
ATOM     13  O4  MOL A   1      14.983 -16.725  -6.026  1.00  0.00    -0.275 OA
ENDBRANCH   9  12
ENDBRANCH   8   9
BRANCH   8  14
ATOM     14  N7  MOL A   1      12.341 -19.591  -8.677  1.00  0.00    -0.346 N 
ATOM     15  C8  MOL A   1      11.611 -18.928  -9.712  1.00  0.00     0.258 C 
ATOM     16  O9  MOL A   1      12.014 -17.825 -10.167  1.00  0.00    -0.271 OA
BRANCH  15  17
ATOM     17 C10  MOL A   1      10.366 -19.545 -10.277  1.00  0.00     0.167 C 
BRANCH  17  18
ATOM     18 O11  MOL A   1       9.767 -20.421  -9.324  1.00  0.00    -0.480 OA
BRANCH  18  19
ATOM     19 C12  MOL A   1       8.565 -21.086  -9.582  1.00  0.00     0.166 A 
ATOM     20 C13  MOL A   1       7.319 -20.469  -9.326  1.00  0.00     0.012 A 
ATOM     21 C21  MOL A   1       6.137 -21.143  -9.674  1.00  0.00    -0.054 A 
ATOM     22 C22  MOL A   1       6.187 -22.425 -10.221  1.00  0.00    -0.058 A 
ATOM     23 C23  MOL A   1       7.417 -23.052 -10.427  1.00  0.00    -0.016 A 
ATOM     24 C24  MOL A   1       8.615 -22.388 -10.105  1.00  0.00     0.161 A 
BRANCH  20  25
ATOM     25 C14  MOL A   1       7.223 -19.102  -8.685  1.00  0.00     0.028 C 
BRANCH  25  26
ATOM     26 N15  MOL A   1       6.602 -18.138  -9.616  1.00  0.00    -0.287 NA
ATOM     27 C16  MOL A   1       7.601 -17.529 -10.511  1.00  0.00     0.064 C 
ATOM     28 C17  MOL A   1       7.410 -16.152  -9.906  1.00  0.00     0.272 C 
ATOM     29 F18  MOL A   1       6.848 -15.236 -10.778  1.00  0.00    -0.204 F 
ATOM     30 F19  MOL A   1       8.525 -15.677  -9.236  1.00  0.00    -0.204 F 
ATOM     31 C20  MOL A   1       6.398 -16.818  -8.995  1.00  0.00     0.064 C 
ENDBRANCH  25  26
ENDBRANCH  20  25
BRANCH  24  32
ATOM     32 O25  MOL A   1       9.871 -22.983 -10.294  1.00  0.00    -0.493 OA
ATOM     33 C26  MOL A   1      10.411 -24.007  -9.465  1.00  0.00     0.078 C 
ENDBRANCH  24  32
ENDBRANCH  18  19
ENDBRANCH  17  18
ENDBRANCH  15  17
ENDBRANCH   8  14
ENDBRANCH   1   8
TORSDOF 10
ENDMDL
MODEL 499
REMARK VINA RESULT:    -6.877      7.716     12.045
REMARK INTER + INTRA:         -11.945
REMARK INTER:                 -10.334
REMARK INTRA:                  -1.611
REMARK UNBOUND:                -1.048
REMARK  10 active torsions:
REMARK  status: ('A' for Active; 'I' for Inactive)
REMARK   1   A    between atoms:  C27_1   and   C6_8  
REMARK   2   A    between atoms:  C6_8    and   C5_9  
REMARK   3   A    between atoms:  C5_9    and   C3_12 
REMARK   4   A    between atoms:  C6_8    and   N7_14 
REMARK   5   A    between atoms:  C8_15   and  C10_17 
REMARK   6   A    between atoms: C10_17   and  O11_18 
REMARK   7   A    between atoms: O11_18   and  C12_19 
REMARK   8   A    between atoms: C13_20   and  C14_25 
REMARK   9   A    between atoms: C14_25   and  N15_26 
REMARK   10  A    between atoms: C24_24   and  O25_32 
ROOT
ATOM      1 C27  MOL A   1      10.498 -18.909  -9.337  1.00  0.00    -0.024 A 
ATOM      2 C28  MOL A   1      10.347 -19.076 -10.726  1.00  0.00    -0.057 A 
ATOM      3 C29  MOL A   1       9.228 -18.555 -11.384  1.00  0.00    -0.061 A 
ATOM      4 C30  MOL A   1       8.250 -17.863 -10.664  1.00  0.00    -0.048 A 
ATOM      5 C31  MOL A   1       8.390 -17.687  -9.283  1.00  0.00     0.018 A 
ATOM      6 Br32 MOL A   1       7.061 -16.720  -8.303  1.00  0.00    -0.051 Br
ATOM      7 C33  MOL A   1       9.504 -18.211  -8.621  1.00  0.00    -0.043 A 
ENDROOT
BRANCH   1   8
ATOM      8  C6  MOL A   1      11.674 -19.537  -8.622  1.00  0.00     0.063 C 
BRANCH   8   9
ATOM      9  C5  MOL A   1      11.173 -20.511  -7.540  1.00  0.00     0.051 C 
BRANCH   9  12
ATOM     10  C1  MOL A   1      12.905 -23.968  -8.017  1.00  0.00     0.006 C 
ATOM     11  N2  MOL A   1      11.998 -22.839  -8.165  1.00  0.00    -0.359 N 
ATOM     12  C3  MOL A   1      12.119 -21.663  -7.356  1.00  0.00     0.222 C 
ATOM     13  O4  MOL A   1      13.026 -21.587  -6.483  1.00  0.00    -0.275 OA
ENDBRANCH   9  12
ENDBRANCH   8   9
BRANCH   8  14
ATOM     14  N7  MOL A   1      12.523 -18.499  -8.028  1.00  0.00    -0.346 N 
ATOM     15  C8  MOL A   1      13.941 -18.474  -8.199  1.00  0.00     0.258 C 
ATOM     16  O9  MOL A   1      14.516 -19.372  -8.870  1.00  0.00    -0.271 OA
BRANCH  15  17
ATOM     17 C10  MOL A   1      14.759 -17.374  -7.592  1.00  0.00     0.167 C 
BRANCH  17  18
ATOM     18 O11  MOL A   1      14.950 -17.605  -6.198  1.00  0.00    -0.480 OA
BRANCH  18  19
ATOM     19 C12  MOL A   1      16.024 -17.051  -5.495  1.00  0.00     0.166 A 
ATOM     20 C13  MOL A   1      17.211 -17.787  -5.276  1.00  0.00     0.012 A 
ATOM     21 C21  MOL A   1      18.295 -17.164  -4.634  1.00  0.00    -0.054 A 
ATOM     22 C22  MOL A   1      18.186 -15.852  -4.175  1.00  0.00    -0.058 A 
ATOM     23 C23  MOL A   1      16.996 -15.144  -4.347  1.00  0.00    -0.016 A 
ATOM     24 C24  MOL A   1      15.904 -15.740  -5.005  1.00  0.00     0.161 A 
BRANCH  20  25
ATOM     25 C14  MOL A   1      17.347 -19.229  -5.713  1.00  0.00     0.028 C 
BRANCH  25  26
ATOM     26 N15  MOL A   1      18.540 -19.399  -6.567  1.00  0.00    -0.287 NA
ATOM     27 C16  MOL A   1      18.288 -18.949  -7.946  1.00  0.00     0.064 C 
ATOM     28 C17  MOL A   1      18.428 -20.351  -8.507  1.00  0.00     0.272 C 
ATOM     29 F18  MOL A   1      19.532 -20.514  -9.325  1.00  0.00    -0.204 F 
ATOM     30 F19  MOL A   1      17.254 -20.857  -9.040  1.00  0.00    -0.204 F 
ATOM     31 C20  MOL A   1      18.670 -20.776  -7.072  1.00  0.00     0.064 C 
ENDBRANCH  25  26
ENDBRANCH  20  25
BRANCH  24  32
ATOM     32 O25  MOL A   1      14.691 -15.064  -5.198  1.00  0.00    -0.493 OA
ATOM     33 C26  MOL A   1      13.680 -14.923  -4.205  1.00  0.00     0.078 C 
ENDBRANCH  24  32
ENDBRANCH  18  19
ENDBRANCH  17  18
ENDBRANCH  15  17
ENDBRANCH   8  14
ENDBRANCH   1   8
TORSDOF 10
ENDMDL
MODEL 500
REMARK VINA RESULT:    -6.876      9.851     12.524
REMARK INTER + INTRA:         -11.945
REMARK INTER:                 -10.168
REMARK INTRA:                  -1.777
REMARK UNBOUND:                -1.048
REMARK  10 active torsions:
REMARK  status: ('A' for Active; 'I' for Inactive)
REMARK   1   A    between atoms:  C27_1   and   C6_8  
REMARK   2   A    between atoms:  C6_8    and   C5_9  
REMARK   3   A    between atoms:  C5_9    and   C3_12 
REMARK   4   A    between atoms:  C6_8    and   N7_14 
REMARK   5   A    between atoms:  C8_15   and  C10_17 
REMARK   6   A    between atoms: C10_17   and  O11_18 
REMARK   7   A    between atoms: O11_18   and  C12_19 
REMARK   8   A    between atoms: C13_20   and  C14_25 
REMARK   9   A    between atoms: C14_25   and  N15_26 
REMARK   10  A    between atoms: C24_24   and  O25_32 
ROOT
ATOM      1 C27  MOL A   1      17.469 -20.205  -6.680  1.00  0.00    -0.024 A 
ATOM      2 C28  MOL A   1      18.535 -19.286  -6.696  1.00  0.00    -0.057 A 
ATOM      3 C29  MOL A   1      19.800 -19.679  -7.146  1.00  0.00    -0.061 A 
ATOM      4 C30  MOL A   1      20.015 -20.989  -7.582  1.00  0.00    -0.048 A 
ATOM      5 C31  MOL A   1      18.963 -21.911  -7.575  1.00  0.00     0.018 A 
ATOM      6 Br32 MOL A   1      19.252 -23.699  -8.193  1.00  0.00    -0.051 Br
ATOM      7 C33  MOL A   1      17.698 -21.525  -7.121  1.00  0.00    -0.043 A 
ENDROOT
BRANCH   1   8
ATOM      8  C6  MOL A   1      16.123 -19.794  -6.124  1.00  0.00     0.063 C 
BRANCH   8   9
ATOM      9  C5  MOL A   1      15.354 -18.962  -7.167  1.00  0.00     0.051 C 
BRANCH   9  12
ATOM     10  C1  MOL A   1      12.322 -21.407  -7.139  1.00  0.00     0.006 C 
ATOM     11  N2  MOL A   1      13.601 -20.780  -6.839  1.00  0.00    -0.359 N 
ATOM     12  C3  MOL A   1      14.034 -19.591  -7.507  1.00  0.00     0.222 C 
ATOM     13  O4  MOL A   1      13.304 -19.059  -8.388  1.00  0.00    -0.275 OA
ENDBRANCH   9  12
ENDBRANCH   8   9
BRANCH   8  14
ATOM     14  N7  MOL A   1      16.297 -19.032  -4.883  1.00  0.00    -0.346 N 
ATOM     15  C8  MOL A   1      15.594 -19.351  -3.680  1.00  0.00     0.258 C 
ATOM     16  O9  MOL A   1      14.779 -20.311  -3.656  1.00  0.00    -0.271 OA
BRANCH  15  17
ATOM     17 C10  MOL A   1      15.829 -18.555  -2.431  1.00  0.00     0.167 C 
BRANCH  17  18
ATOM     18 O11  MOL A   1      14.650 -17.842  -2.064  1.00  0.00    -0.480 OA
BRANCH  18  19
ATOM     19 C12  MOL A   1      14.669 -16.473  -1.787  1.00  0.00     0.166 A 
ATOM     20 C13  MOL A   1      14.497 -15.516  -2.813  1.00  0.00     0.012 A 
ATOM     21 C21  MOL A   1      14.443 -14.153  -2.478  1.00  0.00    -0.054 A 
ATOM     22 C22  MOL A   1      14.605 -13.743  -1.155  1.00  0.00    -0.058 A 
ATOM     23 C23  MOL A   1      14.824 -14.685  -0.150  1.00  0.00    -0.016 A 
ATOM     24 C24  MOL A   1      14.862 -16.058  -0.459  1.00  0.00     0.161 A 
BRANCH  20  25
ATOM     25 C14  MOL A   1      14.372 -15.920  -4.266  1.00  0.00     0.028 C 
BRANCH  25  26
ATOM     26 N15  MOL A   1      14.677 -14.775  -5.148  1.00  0.00    -0.287 NA
ATOM     27 C16  MOL A   1      13.545 -14.458  -6.035  1.00  0.00     0.064 C 
ATOM     28 C17  MOL A   1      14.317 -14.850  -7.280  1.00  0.00     0.272 C 
ATOM     29 F18  MOL A   1      14.589 -13.787  -8.123  1.00  0.00    -0.204 F 
ATOM     30 F19  MOL A   1      13.803 -15.962  -7.927  1.00  0.00    -0.204 F 
ATOM     31 C20  MOL A   1      15.454 -15.178  -6.333  1.00  0.00     0.064 C 
ENDBRANCH  25  26
ENDBRANCH  20  25
BRANCH  24  32
ATOM     32 O25  MOL A   1      15.081 -17.037   0.521  1.00  0.00    -0.493 OA
ATOM     33 C26  MOL A   1      16.208 -17.069   1.389  1.00  0.00     0.078 C 
ENDBRANCH  24  32
ENDBRANCH  18  19
ENDBRANCH  17  18
ENDBRANCH  15  17
ENDBRANCH   8  14
ENDBRANCH   1   8
TORSDOF 10
ENDMDL
MODEL 501
REMARK VINA RESULT:    -6.873      7.950     12.335
REMARK INTER + INTRA:         -11.939
REMARK INTER:                 -10.337
REMARK INTRA:                  -1.602
REMARK UNBOUND:                -1.048
REMARK  10 active torsions:
REMARK  status: ('A' for Active; 'I' for Inactive)
REMARK   1   A    between atoms:  C27_1   and   C6_8  
REMARK   2   A    between atoms:  C6_8    and   C5_9  
REMARK   3   A    between atoms:  C5_9    and   C3_12 
REMARK   4   A    between atoms:  C6_8    and   N7_14 
REMARK   5   A    between atoms:  C8_15   and  C10_17 
REMARK   6   A    between atoms: C10_17   and  O11_18 
REMARK   7   A    between atoms: O11_18   and  C12_19 
REMARK   8   A    between atoms: C13_20   and  C14_25 
REMARK   9   A    between atoms: C14_25   and  N15_26 
REMARK   10  A    between atoms: C24_24   and  O25_32 
ROOT
ATOM      1 C27  MOL A   1      14.897 -17.993  -0.603  1.00  0.00    -0.024 A 
ATOM      2 C28  MOL A   1      14.327 -17.037   0.257  1.00  0.00    -0.057 A 
ATOM      3 C29  MOL A   1      13.470 -17.435   1.289  1.00  0.00    -0.061 A 
ATOM      4 C30  MOL A   1      13.174 -18.788   1.472  1.00  0.00    -0.048 A 
ATOM      5 C31  MOL A   1      13.736 -19.750   0.626  1.00  0.00     0.018 A 
ATOM      6 Br32 MOL A   1      13.347 -21.604   0.891  1.00  0.00    -0.051 Br
ATOM      7 C33  MOL A   1      14.589 -19.355  -0.410  1.00  0.00    -0.043 A 
ENDROOT
BRANCH   1   8
ATOM      8  C6  MOL A   1      15.764 -17.549  -1.761  1.00  0.00     0.063 C 
BRANCH   8   9
ATOM      9  C5  MOL A   1      15.946 -16.021  -1.727  1.00  0.00     0.051 C 
BRANCH   9  12
ATOM     10  C1  MOL A   1      18.692 -15.397  -4.419  1.00  0.00     0.006 C 
ATOM     11  N2  MOL A   1      18.001 -15.858  -3.223  1.00  0.00    -0.359 N 
ATOM     12  C3  MOL A   1      16.634 -15.521  -2.964  1.00  0.00     0.222 C 
ATOM     13  O4  MOL A   1      15.995 -14.801  -3.780  1.00  0.00    -0.275 OA
ENDBRANCH   9  12
ENDBRANCH   8   9
BRANCH   8  14
ATOM     14  N7  MOL A   1      15.168 -17.970  -3.033  1.00  0.00    -0.346 N 
ATOM     15  C8  MOL A   1      15.751 -18.979  -3.859  1.00  0.00     0.258 C 
ATOM     16  O9  MOL A   1      16.825 -19.541  -3.514  1.00  0.00    -0.271 OA
BRANCH  15  17
ATOM     17 C10  MOL A   1      15.086 -19.390  -5.138  1.00  0.00     0.167 C 
BRANCH  17  18
ATOM     18 O11  MOL A   1      15.058 -18.302  -6.059  1.00  0.00    -0.480 OA
BRANCH  18  19
ATOM     19 C12  MOL A   1      15.511 -18.431  -7.374  1.00  0.00     0.166 A 
ATOM     20 C13  MOL A   1      14.614 -18.709  -8.432  1.00  0.00     0.012 A 
ATOM     21 C21  MOL A   1      15.101 -18.752  -9.749  1.00  0.00    -0.054 A 
ATOM     22 C22  MOL A   1      16.460 -18.572 -10.008  1.00  0.00    -0.058 A 
ATOM     23 C23  MOL A   1      17.350 -18.349  -8.958  1.00  0.00    -0.016 A 
ATOM     24 C24  MOL A   1      16.883 -18.281  -7.632  1.00  0.00     0.161 A 
BRANCH  20  25
ATOM     25 C14  MOL A   1      13.144 -18.962  -8.184  1.00  0.00     0.028 C 
BRANCH  25  26
ATOM     26 N15  MOL A   1      12.350 -17.763  -8.524  1.00  0.00    -0.287 NA
ATOM     27 C16  MOL A   1      11.422 -17.402  -7.438  1.00  0.00     0.064 C 
ATOM     28 C17  MOL A   1      10.200 -17.713  -8.280  1.00  0.00     0.272 C 
ATOM     29 F18  MOL A   1       9.438 -16.599  -8.586  1.00  0.00    -0.204 F 
ATOM     30 F19  MOL A   1       9.461 -18.788  -7.814  1.00  0.00    -0.204 F 
ATOM     31 C20  MOL A   1      11.187 -18.088  -9.368  1.00  0.00     0.064 C 
ENDBRANCH  25  26
ENDBRANCH  20  25
BRANCH  24  32
ATOM     32 O25  MOL A   1      17.745 -18.060  -6.548  1.00  0.00    -0.493 OA
ATOM     33 C26  MOL A   1      18.957 -18.773  -6.324  1.00  0.00     0.078 C 
ENDBRANCH  24  32
ENDBRANCH  18  19
ENDBRANCH  17  18
ENDBRANCH  15  17
ENDBRANCH   8  14
ENDBRANCH   1   8
TORSDOF 10
ENDMDL
MODEL 502
REMARK VINA RESULT:    -6.871      7.542     11.413
REMARK INTER + INTRA:         -11.935
REMARK INTER:                 -10.376
REMARK INTRA:                  -1.559
REMARK UNBOUND:                -1.048
REMARK  10 active torsions:
REMARK  status: ('A' for Active; 'I' for Inactive)
REMARK   1   A    between atoms:  C27_1   and   C6_8  
REMARK   2   A    between atoms:  C6_8    and   C5_9  
REMARK   3   A    between atoms:  C5_9    and   C3_12 
REMARK   4   A    between atoms:  C6_8    and   N7_14 
REMARK   5   A    between atoms:  C8_15   and  C10_17 
REMARK   6   A    between atoms: C10_17   and  O11_18 
REMARK   7   A    between atoms: O11_18   and  C12_19 
REMARK   8   A    between atoms: C13_20   and  C14_25 
REMARK   9   A    between atoms: C14_25   and  N15_26 
REMARK   10  A    between atoms: C24_24   and  O25_32 
ROOT
ATOM      1 C27  MOL A   1       9.893 -19.172  -8.291  1.00  0.00    -0.024 A 
ATOM      2 C28  MOL A   1       8.989 -20.197  -7.958  1.00  0.00    -0.057 A 
ATOM      3 C29  MOL A   1       7.629 -20.066  -8.258  1.00  0.00    -0.061 A 
ATOM      4 C30  MOL A   1       7.158 -18.912  -8.890  1.00  0.00    -0.048 A 
ATOM      5 C31  MOL A   1       8.047 -17.886  -9.230  1.00  0.00     0.018 A 
ATOM      6 Br32 MOL A   1       7.406 -16.316 -10.115  1.00  0.00    -0.051 Br
ATOM      7 C33  MOL A   1       9.407 -18.012  -8.927  1.00  0.00    -0.043 A 
ENDROOT
BRANCH   1   8
ATOM      8  C6  MOL A   1      11.350 -19.291  -7.899  1.00  0.00     0.063 C 
BRANCH   8   9
ATOM      9  C5  MOL A   1      11.566 -20.556  -7.049  1.00  0.00     0.051 C 
BRANCH   9  12
ATOM     10  C1  MOL A   1      15.028 -21.766  -8.364  1.00  0.00     0.006 C 
ATOM     11  N2  MOL A   1      13.966 -20.936  -7.812  1.00  0.00    -0.359 N 
ATOM     12  C3  MOL A   1      12.636 -21.434  -7.631  1.00  0.00     0.222 C 
ATOM     13  O4  MOL A   1      12.355 -22.619  -7.957  1.00  0.00    -0.275 OA
ENDBRANCH   9  12
ENDBRANCH   8   9
BRANCH   8  14
ATOM     14  N7  MOL A   1      11.777 -18.095  -7.164  1.00  0.00    -0.346 N 
ATOM     15  C8  MOL A   1      12.901 -17.307  -7.564  1.00  0.00     0.258 C 
ATOM     16  O9  MOL A   1      13.576 -17.631  -8.577  1.00  0.00    -0.271 OA
BRANCH  15  17
ATOM     17 C10  MOL A   1      13.279 -16.079  -6.791  1.00  0.00     0.167 C 
BRANCH  17  18
ATOM     18 O11  MOL A   1      14.690 -16.027  -6.596  1.00  0.00    -0.480 OA
BRANCH  18  19
ATOM     19 C12  MOL A   1      15.297 -16.518  -5.437  1.00  0.00     0.166 A 
ATOM     20 C13  MOL A   1      16.130 -17.659  -5.475  1.00  0.00     0.012 A 
ATOM     21 C21  MOL A   1      16.783 -18.070  -4.301  1.00  0.00    -0.054 A 
ATOM     22 C22  MOL A   1      16.574 -17.392  -3.100  1.00  0.00    -0.058 A 
ATOM     23 C23  MOL A   1      15.711 -16.297  -3.054  1.00  0.00    -0.016 A 
ATOM     24 C24  MOL A   1      15.062 -15.854  -4.222  1.00  0.00     0.161 A 
BRANCH  20  25
ATOM     25 C14  MOL A   1      16.339 -18.451  -6.746  1.00  0.00     0.028 C 
BRANCH  25  26
ATOM     26 N15  MOL A   1      17.528 -17.959  -7.472  1.00  0.00    -0.287 NA
ATOM     27 C16  MOL A   1      17.412 -18.189  -8.922  1.00  0.00     0.064 C 
ATOM     28 C17  MOL A   1      18.559 -19.180  -8.931  1.00  0.00     0.272 C 
ATOM     29 F18  MOL A   1      19.671 -18.736  -9.626  1.00  0.00    -0.204 F 
ATOM     30 F19  MOL A   1      18.177 -20.473  -9.250  1.00  0.00    -0.204 F 
ATOM     31 C20  MOL A   1      18.639 -18.927  -7.438  1.00  0.00     0.064 C 
ENDBRANCH  25  26
ENDBRANCH  20  25
BRANCH  24  32
ATOM     32 O25  MOL A   1      14.187 -14.758  -4.218  1.00  0.00    -0.493 OA
ATOM     33 C26  MOL A   1      13.468 -14.305  -3.075  1.00  0.00     0.078 C 
ENDBRANCH  24  32
ENDBRANCH  18  19
ENDBRANCH  17  18
ENDBRANCH  15  17
ENDBRANCH   8  14
ENDBRANCH   1   8
TORSDOF 10
ENDMDL
MODEL 503
REMARK VINA RESULT:    -6.861      7.463     11.112
REMARK INTER + INTRA:         -11.921
REMARK INTER:                 -10.691
REMARK INTRA:                  -1.230
REMARK UNBOUND:                -1.048
REMARK  10 active torsions:
REMARK  status: ('A' for Active; 'I' for Inactive)
REMARK   1   A    between atoms:  C27_1   and   C6_8  
REMARK   2   A    between atoms:  C6_8    and   C5_9  
REMARK   3   A    between atoms:  C5_9    and   C3_12 
REMARK   4   A    between atoms:  C6_8    and   N7_14 
REMARK   5   A    between atoms:  C8_15   and  C10_17 
REMARK   6   A    between atoms: C10_17   and  O11_18 
REMARK   7   A    between atoms: O11_18   and  C12_19 
REMARK   8   A    between atoms: C13_20   and  C14_25 
REMARK   9   A    between atoms: C14_25   and  N15_26 
REMARK   10  A    between atoms: C24_24   and  O25_32 
ROOT
ATOM      1 C27  MOL A   1      17.075 -19.711  -5.440  1.00  0.00    -0.024 A 
ATOM      2 C28  MOL A   1      18.130 -18.838  -5.764  1.00  0.00    -0.057 A 
ATOM      3 C29  MOL A   1      18.416 -17.739  -4.946  1.00  0.00    -0.061 A 
ATOM      4 C30  MOL A   1      17.653 -17.501  -3.799  1.00  0.00    -0.048 A 
ATOM      5 C31  MOL A   1      16.603 -18.364  -3.464  1.00  0.00     0.018 A 
ATOM      6 Br32 MOL A   1      15.574 -18.049  -1.882  1.00  0.00    -0.051 Br
ATOM      7 C33  MOL A   1      16.311 -19.460  -4.282  1.00  0.00    -0.043 A 
ENDROOT
BRANCH   1   8
ATOM      8  C6  MOL A   1      16.727 -20.854  -6.368  1.00  0.00     0.063 C 
BRANCH   8   9
ATOM      9  C5  MOL A   1      17.508 -20.720  -7.687  1.00  0.00     0.051 C 
BRANCH   9  12
ATOM     10  C1  MOL A   1      18.943 -23.966  -9.294  1.00  0.00     0.006 C 
ATOM     11  N2  MOL A   1      18.109 -22.804  -9.023  1.00  0.00    -0.359 N 
ATOM     12  C3  MOL A   1      18.382 -21.916  -7.934  1.00  0.00     0.222 C 
ATOM     13  O4  MOL A   1      19.364 -22.133  -7.173  1.00  0.00    -0.275 OA
ENDBRANCH   9  12
ENDBRANCH   8   9
BRANCH   8  14
ATOM     14  N7  MOL A   1      15.282 -20.879  -6.623  1.00  0.00    -0.346 N 
ATOM     15  C8  MOL A   1      14.646 -19.975  -7.529  1.00  0.00     0.258 C 
ATOM     16  O9  MOL A   1      15.323 -19.104  -8.138  1.00  0.00    -0.271 OA
BRANCH  15  17
ATOM     17 C10  MOL A   1      13.169 -20.060  -7.773  1.00  0.00     0.167 C 
BRANCH  17  18
ATOM     18 O11  MOL A   1      12.741 -18.994  -8.617  1.00  0.00    -0.480 OA
BRANCH  18  19
ATOM     19 C12  MOL A   1      11.663 -18.170  -8.282  1.00  0.00     0.166 A 
ATOM     20 C13  MOL A   1      11.818 -17.097  -7.374  1.00  0.00     0.012 A 
ATOM     21 C21  MOL A   1      10.728 -16.247  -7.126  1.00  0.00    -0.054 A 
ATOM     22 C22  MOL A   1       9.493 -16.484  -7.730  1.00  0.00    -0.058 A 
ATOM     23 C23  MOL A   1       9.329 -17.573  -8.586  1.00  0.00    -0.016 A 
ATOM     24 C24  MOL A   1      10.412 -18.427  -8.865  1.00  0.00     0.161 A 
BRANCH  20  25
ATOM     25 C14  MOL A   1      13.127 -16.841  -6.660  1.00  0.00     0.028 C 
BRANCH  25  26
ATOM     26 N15  MOL A   1      13.697 -15.544  -7.078  1.00  0.00    -0.287 NA
ATOM     27 C16  MOL A   1      14.543 -15.686  -8.276  1.00  0.00     0.064 C 
ATOM     28 C17  MOL A   1      15.803 -15.314  -7.519  1.00  0.00     0.272 C 
ATOM     29 F18  MOL A   1      16.357 -14.110  -7.919  1.00  0.00    -0.204 F 
ATOM     30 F19  MOL A   1      16.720 -16.348  -7.421  1.00  0.00    -0.204 F 
ATOM     31 C20  MOL A   1      14.901 -15.192  -6.307  1.00  0.00     0.064 C 
ENDBRANCH  25  26
ENDBRANCH  20  25
BRANCH  24  32
ATOM     32 O25  MOL A   1      10.288 -19.533  -9.719  1.00  0.00    -0.493 OA
ATOM     33 C26  MOL A   1       9.960 -20.850  -9.289  1.00  0.00     0.078 C 
ENDBRANCH  24  32
ENDBRANCH  18  19
ENDBRANCH  17  18
ENDBRANCH  15  17
ENDBRANCH   8  14
ENDBRANCH   1   8
TORSDOF 10
ENDMDL
MODEL 504
REMARK VINA RESULT:    -6.860      6.875     11.849
REMARK INTER + INTRA:         -11.919
REMARK INTER:                 -10.594
REMARK INTRA:                  -1.325
REMARK UNBOUND:                -1.048
REMARK  10 active torsions:
REMARK  status: ('A' for Active; 'I' for Inactive)
REMARK   1   A    between atoms:  C27_1   and   C6_8  
REMARK   2   A    between atoms:  C6_8    and   C5_9  
REMARK   3   A    between atoms:  C5_9    and   C3_12 
REMARK   4   A    between atoms:  C6_8    and   N7_14 
REMARK   5   A    between atoms:  C8_15   and  C10_17 
REMARK   6   A    between atoms: C10_17   and  O11_18 
REMARK   7   A    between atoms: O11_18   and  C12_19 
REMARK   8   A    between atoms: C13_20   and  C14_25 
REMARK   9   A    between atoms: C14_25   and  N15_26 
REMARK   10  A    between atoms: C24_24   and  O25_32 
ROOT
ATOM      1 C27  MOL A   1      13.613 -19.612  -8.345  1.00  0.00    -0.024 A 
ATOM      2 C28  MOL A   1      14.908 -19.809  -8.858  1.00  0.00    -0.057 A 
ATOM      3 C29  MOL A   1      15.579 -21.018  -8.642  1.00  0.00    -0.061 A 
ATOM      4 C30  MOL A   1      14.964 -22.040  -7.912  1.00  0.00    -0.048 A 
ATOM      5 C31  MOL A   1      13.675 -21.858  -7.399  1.00  0.00     0.018 A 
ATOM      6 Br32 MOL A   1      12.827 -23.265  -6.420  1.00  0.00    -0.051 Br
ATOM      7 C33  MOL A   1      13.004 -20.649  -7.609  1.00  0.00    -0.043 A 
ENDROOT
BRANCH   1   8
ATOM      8  C6  MOL A   1      12.924 -18.276  -8.521  1.00  0.00     0.063 C 
BRANCH   8   9
ATOM      9  C5  MOL A   1      12.180 -18.240  -9.868  1.00  0.00     0.051 C 
BRANCH   9  12
ATOM     10  C1  MOL A   1       8.395 -18.720 -10.654  1.00  0.00     0.006 C 
ATOM     11  N2  MOL A   1       9.837 -18.585 -10.805  1.00  0.00    -0.359 N 
ATOM     12  C3  MOL A   1      10.696 -18.364  -9.681  1.00  0.00     0.222 C 
ATOM     13  O4  MOL A   1      10.209 -18.276  -8.520  1.00  0.00    -0.275 OA
ENDBRANCH   9  12
ENDBRANCH   8   9
BRANCH   8  14
ATOM     14  N7  MOL A   1      13.902 -17.186  -8.442  1.00  0.00    -0.346 N 
ATOM     15  C8  MOL A   1      13.939 -16.263  -7.351  1.00  0.00     0.258 C 
ATOM     16  O9  MOL A   1      13.107 -16.358  -6.411  1.00  0.00    -0.271 OA
BRANCH  15  17
ATOM     17 C10  MOL A   1      14.977 -15.182  -7.307  1.00  0.00     0.167 C 
BRANCH  17  18
ATOM     18 O11  MOL A   1      16.228 -15.671  -7.786  1.00  0.00    -0.480 OA
BRANCH  18  19
ATOM     19 C12  MOL A   1      17.020 -16.543  -7.035  1.00  0.00     0.166 A 
ATOM     20 C13  MOL A   1      17.186 -16.363  -5.642  1.00  0.00     0.012 A 
ATOM     21 C21  MOL A   1      17.926 -17.309  -4.913  1.00  0.00    -0.054 A 
ATOM     22 C22  MOL A   1      18.531 -18.386  -5.560  1.00  0.00    -0.058 A 
ATOM     23 C23  MOL A   1      18.408 -18.534  -6.941  1.00  0.00    -0.016 A 
ATOM     24 C24  MOL A   1      17.655 -17.611  -7.690  1.00  0.00     0.161 A 
BRANCH  20  25
ATOM     25 C14  MOL A   1      16.590 -15.179  -4.915  1.00  0.00     0.028 C 
BRANCH  25  26
ATOM     26 N15  MOL A   1      16.196 -15.560  -3.543  1.00  0.00    -0.287 NA
ATOM     27 C16  MOL A   1      14.982 -16.394  -3.541  1.00  0.00     0.064 C 
ATOM     28 C17  MOL A   1      14.164 -15.331  -2.835  1.00  0.00     0.272 C 
ATOM     29 F18  MOL A   1      13.773 -15.688  -1.557  1.00  0.00    -0.204 F 
ATOM     30 F19  MOL A   1      13.141 -14.808  -3.610  1.00  0.00    -0.204 F 
ATOM     31 C20  MOL A   1      15.430 -14.498  -2.869  1.00  0.00     0.064 C 
ENDBRANCH  25  26
ENDBRANCH  20  25
BRANCH  24  32
ATOM     32 O25  MOL A   1      17.507 -17.722  -9.080  1.00  0.00    -0.493 OA
ATOM     33 C26  MOL A   1      18.309 -18.555  -9.911  1.00  0.00     0.078 C 
ENDBRANCH  24  32
ENDBRANCH  18  19
ENDBRANCH  17  18
ENDBRANCH  15  17
ENDBRANCH   8  14
ENDBRANCH   1   8
TORSDOF 10
ENDMDL
MODEL 505
REMARK VINA RESULT:    -6.859      7.710     11.691
REMARK INTER + INTRA:         -11.918
REMARK INTER:                 -10.875
REMARK INTRA:                  -1.042
REMARK UNBOUND:                -1.048
REMARK  10 active torsions:
REMARK  status: ('A' for Active; 'I' for Inactive)
REMARK   1   A    between atoms:  C27_1   and   C6_8  
REMARK   2   A    between atoms:  C6_8    and   C5_9  
REMARK   3   A    between atoms:  C5_9    and   C3_12 
REMARK   4   A    between atoms:  C6_8    and   N7_14 
REMARK   5   A    between atoms:  C8_15   and  C10_17 
REMARK   6   A    between atoms: C10_17   and  O11_18 
REMARK   7   A    between atoms: O11_18   and  C12_19 
REMARK   8   A    between atoms: C13_20   and  C14_25 
REMARK   9   A    between atoms: C14_25   and  N15_26 
REMARK   10  A    between atoms: C24_24   and  O25_32 
ROOT
ATOM      1 C27  MOL A   1      10.886 -18.718  -8.474  1.00  0.00    -0.024 A 
ATOM      2 C28  MOL A   1      10.287 -19.887  -7.970  1.00  0.00    -0.057 A 
ATOM      3 C29  MOL A   1       8.901 -20.059  -8.042  1.00  0.00    -0.061 A 
ATOM      4 C30  MOL A   1       8.100 -19.068  -8.616  1.00  0.00    -0.048 A 
ATOM      5 C31  MOL A   1       8.683 -17.902  -9.124  1.00  0.00     0.018 A 
ATOM      6 Br32 MOL A   1       7.588 -16.555  -9.929  1.00  0.00    -0.051 Br
ATOM      7 C33  MOL A   1      10.068 -17.724  -9.049  1.00  0.00    -0.043 A 
ENDROOT
BRANCH   1   8
ATOM      8  C6  MOL A   1      12.378 -18.507  -8.328  1.00  0.00     0.063 C 
BRANCH   8   9
ATOM      9  C5  MOL A   1      13.099 -19.866  -8.277  1.00  0.00     0.051 C 
BRANCH   9  12
ATOM     10  C1  MOL A   1      16.968 -20.322  -8.324  1.00  0.00     0.006 C 
ATOM     11  N2  MOL A   1      15.564 -20.417  -7.948  1.00  0.00    -0.359 N 
ATOM     12  C3  MOL A   1      14.539 -19.740  -8.683  1.00  0.00     0.222 C 
ATOM     13  O4  MOL A   1      14.840 -19.033  -9.684  1.00  0.00    -0.275 OA
ENDBRANCH   9  12
ENDBRANCH   8   9
BRANCH   8  14
ATOM     14  N7  MOL A   1      12.664 -17.724  -7.121  1.00  0.00    -0.346 N 
ATOM     15  C8  MOL A   1      13.368 -16.481  -7.159  1.00  0.00     0.258 C 
ATOM     16  O9  MOL A   1      13.781 -16.019  -8.256  1.00  0.00    -0.271 OA
BRANCH  15  17
ATOM     17 C10  MOL A   1      13.612 -15.708  -5.898  1.00  0.00     0.167 C 
BRANCH  17  18
ATOM     18 O11  MOL A   1      14.783 -14.906  -6.023  1.00  0.00    -0.480 OA
BRANCH  18  19
ATOM     19 C12  MOL A   1      16.014 -15.304  -5.494  1.00  0.00     0.166 A 
ATOM     20 C13  MOL A   1      16.255 -15.276  -4.101  1.00  0.00     0.012 A 
ATOM     21 C21  MOL A   1      17.478 -15.759  -3.607  1.00  0.00    -0.054 A 
ATOM     22 C22  MOL A   1      18.463 -16.217  -4.481  1.00  0.00    -0.058 A 
ATOM     23 C23  MOL A   1      18.243 -16.197  -5.859  1.00  0.00    -0.016 A 
ATOM     24 C24  MOL A   1      17.018 -15.736  -6.376  1.00  0.00     0.161 A 
BRANCH  20  25
ATOM     25 C14  MOL A   1      15.231 -14.737  -3.126  1.00  0.00     0.028 C 
BRANCH  25  26
ATOM     26 N15  MOL A   1      14.360 -15.826  -2.639  1.00  0.00    -0.287 NA
ATOM     27 C16  MOL A   1      14.371 -15.913  -1.169  1.00  0.00     0.064 C 
ATOM     28 C17  MOL A   1      15.046 -17.270  -1.181  1.00  0.00     0.272 C 
ATOM     29 F18  MOL A   1      14.245 -18.294  -0.707  1.00  0.00    -0.204 F 
ATOM     30 F19  MOL A   1      16.323 -17.262  -0.644  1.00  0.00    -0.204 F 
ATOM     31 C20  MOL A   1      15.028 -17.138  -2.691  1.00  0.00     0.064 C 
ENDBRANCH  25  26
ENDBRANCH  20  25
BRANCH  24  32
ATOM     32 O25  MOL A   1      16.757 -15.698  -7.753  1.00  0.00    -0.493 OA
ATOM     33 C26  MOL A   1      17.256 -16.644  -8.693  1.00  0.00     0.078 C 
ENDBRANCH  24  32
ENDBRANCH  18  19
ENDBRANCH  17  18
ENDBRANCH  15  17
ENDBRANCH   8  14
ENDBRANCH   1   8
TORSDOF 10
ENDMDL
MODEL 506
REMARK VINA RESULT:    -6.856      5.521      9.379
REMARK INTER + INTRA:         -11.913
REMARK INTER:                 -10.626
REMARK INTRA:                  -1.288
REMARK UNBOUND:                -1.048
REMARK  10 active torsions:
REMARK  status: ('A' for Active; 'I' for Inactive)
REMARK   1   A    between atoms:  C27_1   and   C6_8  
REMARK   2   A    between atoms:  C6_8    and   C5_9  
REMARK   3   A    between atoms:  C5_9    and   C3_12 
REMARK   4   A    between atoms:  C6_8    and   N7_14 
REMARK   5   A    between atoms:  C8_15   and  C10_17 
REMARK   6   A    between atoms: C10_17   and  O11_18 
REMARK   7   A    between atoms: O11_18   and  C12_19 
REMARK   8   A    between atoms: C13_20   and  C14_25 
REMARK   9   A    between atoms: C14_25   and  N15_26 
REMARK   10  A    between atoms: C24_24   and  O25_32 
ROOT
ATOM      1 C27  MOL A   1      15.058 -19.388  -5.173  1.00  0.00    -0.024 A 
ATOM      2 C28  MOL A   1      15.342 -18.011  -5.229  1.00  0.00    -0.057 A 
ATOM      3 C29  MOL A   1      15.659 -17.307  -4.062  1.00  0.00    -0.061 A 
ATOM      4 C30  MOL A   1      15.696 -17.968  -2.832  1.00  0.00    -0.048 A 
ATOM      5 C31  MOL A   1      15.418 -19.338  -2.763  1.00  0.00     0.018 A 
ATOM      6 Br32 MOL A   1      15.490 -20.246  -1.081  1.00  0.00    -0.051 Br
ATOM      7 C33  MOL A   1      15.096 -20.044  -3.926  1.00  0.00    -0.043 A 
ENDROOT
BRANCH   1   8
ATOM      8  C6  MOL A   1      14.645 -20.127  -6.428  1.00  0.00     0.063 C 
BRANCH   8   9
ATOM      9  C5  MOL A   1      15.479 -19.640  -7.626  1.00  0.00     0.051 C 
BRANCH   9  12
ATOM     10  C1  MOL A   1      17.901 -22.690  -7.575  1.00  0.00     0.006 C 
ATOM     11  N2  MOL A   1      16.729 -21.847  -7.391  1.00  0.00    -0.359 N 
ATOM     12  C3  MOL A   1      16.707 -20.481  -7.820  1.00  0.00     0.222 C 
ATOM     13  O4  MOL A   1      17.723 -19.975  -8.370  1.00  0.00    -0.275 OA
ENDBRANCH   9  12
ENDBRANCH   8   9
BRANCH   8  14
ATOM     14  N7  MOL A   1      13.213 -19.935  -6.683  1.00  0.00    -0.346 N 
ATOM     15  C8  MOL A   1      12.384 -20.963  -7.229  1.00  0.00     0.258 C 
ATOM     16  O9  MOL A   1      12.875 -22.085  -7.523  1.00  0.00    -0.271 OA
BRANCH  15  17
ATOM     17 C10  MOL A   1      10.920 -20.721  -7.445  1.00  0.00     0.167 C 
BRANCH  17  18
ATOM     18 O11  MOL A   1      10.587 -20.878  -8.823  1.00  0.00    -0.480 OA
BRANCH  18  19
ATOM     19 C12  MOL A   1       9.400 -21.490  -9.234  1.00  0.00     0.166 A 
ATOM     20 C13  MOL A   1       8.175 -20.784  -9.235  1.00  0.00     0.012 A 
ATOM     21 C21  MOL A   1       7.022 -21.415  -9.730  1.00  0.00    -0.054 A 
ATOM     22 C22  MOL A   1       7.071 -22.737 -10.171  1.00  0.00    -0.058 A 
ATOM     23 C23  MOL A   1       8.270 -23.448 -10.122  1.00  0.00    -0.016 A 
ATOM     24 C24  MOL A   1       9.443 -22.831  -9.649  1.00  0.00     0.161 A 
BRANCH  20  25
ATOM     25 C14  MOL A   1       8.072 -19.368  -8.715  1.00  0.00     0.028 C 
BRANCH  25  26
ATOM     26 N15  MOL A   1       7.381 -18.507  -9.696  1.00  0.00    -0.287 NA
ATOM     27 C16  MOL A   1       8.324 -17.618 -10.395  1.00  0.00     0.064 C 
ATOM     28 C17  MOL A   1       7.720 -16.372  -9.778  1.00  0.00     0.272 C 
ATOM     29 F18  MOL A   1       7.088 -15.548 -10.694  1.00  0.00    -0.204 F 
ATOM     30 F19  MOL A   1       8.577 -15.703  -8.920  1.00  0.00    -0.204 F 
ATOM     31 C20  MOL A   1       6.776 -17.321  -9.067  1.00  0.00     0.064 C 
ENDBRANCH  25  26
ENDBRANCH  20  25
BRANCH  24  32
ATOM     32 O25  MOL A   1      10.668 -23.511  -9.582  1.00  0.00    -0.493 OA
ATOM     33 C26  MOL A   1      10.923 -24.632  -8.742  1.00  0.00     0.078 C 
ENDBRANCH  24  32
ENDBRANCH  18  19
ENDBRANCH  17  18
ENDBRANCH  15  17
ENDBRANCH   8  14
ENDBRANCH   1   8
TORSDOF 10
ENDMDL
MODEL 507
REMARK VINA RESULT:    -6.856      5.930      9.116
REMARK INTER + INTRA:         -11.913
REMARK INTER:                 -10.716
REMARK INTRA:                  -1.197
REMARK UNBOUND:                -1.048
REMARK  10 active torsions:
REMARK  status: ('A' for Active; 'I' for Inactive)
REMARK   1   A    between atoms:  C27_1   and   C6_8  
REMARK   2   A    between atoms:  C6_8    and   C5_9  
REMARK   3   A    between atoms:  C5_9    and   C3_12 
REMARK   4   A    between atoms:  C6_8    and   N7_14 
REMARK   5   A    between atoms:  C8_15   and  C10_17 
REMARK   6   A    between atoms: C10_17   and  O11_18 
REMARK   7   A    between atoms: O11_18   and  C12_19 
REMARK   8   A    between atoms: C13_20   and  C14_25 
REMARK   9   A    between atoms: C14_25   and  N15_26 
REMARK   10  A    between atoms: C24_24   and  O25_32 
ROOT
ATOM      1 C27  MOL A   1      13.809 -16.972  -6.781  1.00  0.00    -0.024 A 
ATOM      2 C28  MOL A   1      13.325 -15.652  -6.712  1.00  0.00    -0.057 A 
ATOM      3 C29  MOL A   1      13.855 -14.752  -5.782  1.00  0.00    -0.061 A 
ATOM      4 C30  MOL A   1      14.871 -15.158  -4.913  1.00  0.00    -0.048 A 
ATOM      5 C31  MOL A   1      15.364 -16.467  -4.973  1.00  0.00     0.018 A 
ATOM      6 Br32 MOL A   1      16.770 -17.016  -3.798  1.00  0.00    -0.051 Br
ATOM      7 C33  MOL A   1      14.832 -17.371  -5.898  1.00  0.00    -0.043 A 
ENDROOT
BRANCH   1   8
ATOM      8  C6  MOL A   1      13.180 -17.960  -7.740  1.00  0.00     0.063 C 
BRANCH   8   9
ATOM      9  C5  MOL A   1      14.140 -18.243  -8.910  1.00  0.00     0.051 C 
BRANCH   9  12
ATOM     10  C1  MOL A   1      16.848 -21.041  -8.989  1.00  0.00     0.006 C 
ATOM     11  N2  MOL A   1      16.176 -19.757  -9.126  1.00  0.00    -0.359 N 
ATOM     12  C3  MOL A   1      14.801 -19.583  -8.767  1.00  0.00     0.222 C 
ATOM     13  O4  MOL A   1      14.135 -20.558  -8.325  1.00  0.00    -0.275 OA
ENDBRANCH   9  12
ENDBRANCH   8   9
BRANCH   8  14
ATOM     14  N7  MOL A   1      11.900 -17.443  -8.236  1.00  0.00    -0.346 N 
ATOM     15  C8  MOL A   1      10.642 -17.986  -7.829  1.00  0.00     0.258 C 
ATOM     16  O9  MOL A   1      10.598 -18.952  -7.022  1.00  0.00    -0.271 OA
BRANCH  15  17
ATOM     17 C10  MOL A   1       9.362 -17.402  -8.346  1.00  0.00     0.167 C 
BRANCH  17  18
ATOM     18 O11  MOL A   1       8.593 -18.400  -9.014  1.00  0.00    -0.480 OA
BRANCH  18  19
ATOM     19 C12  MOL A   1       7.354 -18.829  -8.530  1.00  0.00     0.166 A 
ATOM     20 C13  MOL A   1       7.137 -20.180  -8.172  1.00  0.00     0.012 A 
ATOM     21 C21  MOL A   1       5.902 -20.551  -7.615  1.00  0.00    -0.054 A 
ATOM     22 C22  MOL A   1       4.884 -19.611  -7.461  1.00  0.00    -0.058 A 
ATOM     23 C23  MOL A   1       5.083 -18.290  -7.861  1.00  0.00    -0.016 A 
ATOM     24 C24  MOL A   1       6.318 -17.889  -8.403  1.00  0.00     0.161 A 
BRANCH  20  25
ATOM     25 C14  MOL A   1       8.199 -21.238  -8.374  1.00  0.00     0.028 C 
BRANCH  25  26
ATOM     26 N15  MOL A   1       8.218 -21.688  -9.781  1.00  0.00    -0.287 NA
ATOM     27 C16  MOL A   1       8.345 -23.152  -9.879  1.00  0.00     0.064 C 
ATOM     28 C17  MOL A   1       9.717 -23.063 -10.518  1.00  0.00     0.272 C 
ATOM     29 F18  MOL A   1       9.748 -23.503 -11.830  1.00  0.00    -0.204 F 
ATOM     30 F19  MOL A   1      10.734 -23.577  -9.730  1.00  0.00    -0.204 F 
ATOM     31 C20  MOL A   1       9.554 -21.562 -10.388  1.00  0.00     0.064 C 
ENDBRANCH  25  26
ENDBRANCH  20  25
BRANCH  24  32
ATOM     32 O25  MOL A   1       6.558 -16.572  -8.818  1.00  0.00    -0.493 OA
ATOM     33 C26  MOL A   1       6.038 -15.996 -10.012  1.00  0.00     0.078 C 
ENDBRANCH  24  32
ENDBRANCH  18  19
ENDBRANCH  17  18
ENDBRANCH  15  17
ENDBRANCH   8  14
ENDBRANCH   1   8
TORSDOF 10
ENDMDL
MODEL 508
REMARK VINA RESULT:    -6.855      5.363      9.495
REMARK INTER + INTRA:         -11.910
REMARK INTER:                 -10.391
REMARK INTRA:                  -1.520
REMARK UNBOUND:                -1.048
REMARK  10 active torsions:
REMARK  status: ('A' for Active; 'I' for Inactive)
REMARK   1   A    between atoms:  C27_1   and   C6_8  
REMARK   2   A    between atoms:  C6_8    and   C5_9  
REMARK   3   A    between atoms:  C5_9    and   C3_12 
REMARK   4   A    between atoms:  C6_8    and   N7_14 
REMARK   5   A    between atoms:  C8_15   and  C10_17 
REMARK   6   A    between atoms: C10_17   and  O11_18 
REMARK   7   A    between atoms: O11_18   and  C12_19 
REMARK   8   A    between atoms: C13_20   and  C14_25 
REMARK   9   A    between atoms: C14_25   and  N15_26 
REMARK   10  A    between atoms: C24_24   and  O25_32 
ROOT
ATOM      1 C27  MOL A   1      16.427 -17.792  -6.534  1.00  0.00    -0.024 A 
ATOM      2 C28  MOL A   1      17.578 -17.586  -5.752  1.00  0.00    -0.057 A 
ATOM      3 C29  MOL A   1      18.744 -18.317  -6.002  1.00  0.00    -0.061 A 
ATOM      4 C30  MOL A   1      18.772 -19.261  -7.033  1.00  0.00    -0.048 A 
ATOM      5 C31  MOL A   1      17.635 -19.473  -7.820  1.00  0.00     0.018 A 
ATOM      6 Br32 MOL A   1      17.681 -20.749  -9.245  1.00  0.00    -0.051 Br
ATOM      7 C33  MOL A   1      16.466 -18.747  -7.569  1.00  0.00    -0.043 A 
ENDROOT
BRANCH   1   8
ATOM      8  C6  MOL A   1      15.148 -17.049  -6.210  1.00  0.00     0.063 C 
BRANCH   8   9
ATOM      9  C5  MOL A   1      14.847 -17.150  -4.704  1.00  0.00     0.051 C 
BRANCH   9  12
ATOM     10  C1  MOL A   1      14.967 -14.427  -1.921  1.00  0.00     0.006 C 
ATOM     11  N2  MOL A   1      14.846 -15.706  -2.606  1.00  0.00    -0.359 N 
ATOM     12  C3  MOL A   1      14.966 -15.814  -4.028  1.00  0.00     0.222 C 
ATOM     13  O4  MOL A   1      15.178 -14.785  -4.725  1.00  0.00    -0.275 OA
ENDBRANCH   9  12
ENDBRANCH   8   9
BRANCH   8  14
ATOM     14  N7  MOL A   1      14.034 -17.588  -6.997  1.00  0.00    -0.346 N 
ATOM     15  C8  MOL A   1      12.824 -16.861  -7.215  1.00  0.00     0.258 C 
ATOM     16  O9  MOL A   1      12.674 -15.713  -6.718  1.00  0.00    -0.271 OA
BRANCH  15  17
ATOM     17 C10  MOL A   1      11.726 -17.449  -8.050  1.00  0.00     0.167 C 
BRANCH  17  18
ATOM     18 O11  MOL A   1      11.036 -18.463  -7.324  1.00  0.00    -0.480 OA
BRANCH  18  19
ATOM     19 C12  MOL A   1      10.607 -19.647  -7.931  1.00  0.00     0.166 A 
ATOM     20 C13  MOL A   1       9.327 -19.742  -8.524  1.00  0.00     0.012 A 
ATOM     21 C21  MOL A   1       8.968 -20.925  -9.192  1.00  0.00    -0.054 A 
ATOM     22 C22  MOL A   1       9.842 -22.011  -9.229  1.00  0.00    -0.058 A 
ATOM     23 C23  MOL A   1      11.085 -21.932  -8.599  1.00  0.00    -0.016 A 
ATOM     24 C24  MOL A   1      11.475 -20.751  -7.941  1.00  0.00     0.161 A 
BRANCH  20  25
ATOM     25 C14  MOL A   1       8.332 -18.605  -8.458  1.00  0.00     0.028 C 
BRANCH  25  26
ATOM     26 N15  MOL A   1       8.400 -17.789  -9.687  1.00  0.00    -0.287 NA
ATOM     27 C16  MOL A   1       8.128 -16.368  -9.410  1.00  0.00     0.064 C 
ATOM     28 C17  MOL A   1       6.841 -16.382 -10.209  1.00  0.00     0.272 C 
ATOM     29 F18  MOL A   1       6.888 -15.603 -11.352  1.00  0.00    -0.204 F 
ATOM     30 F19  MOL A   1       5.705 -16.183  -9.441  1.00  0.00    -0.204 F 
ATOM     31 C20  MOL A   1       7.148 -17.845 -10.462  1.00  0.00     0.064 C 
ENDBRANCH  25  26
ENDBRANCH  20  25
BRANCH  24  32
ATOM     32 O25  MOL A   1      12.714 -20.632  -7.296  1.00  0.00    -0.493 OA
ATOM     33 C26  MOL A   1      13.830 -21.484  -7.531  1.00  0.00     0.078 C 
ENDBRANCH  24  32
ENDBRANCH  18  19
ENDBRANCH  17  18
ENDBRANCH  15  17
ENDBRANCH   8  14
ENDBRANCH   1   8
TORSDOF 10
ENDMDL
MODEL 509
REMARK VINA RESULT:    -6.854      7.549     11.567
REMARK INTER + INTRA:         -11.909
REMARK INTER:                 -10.336
REMARK INTRA:                  -1.573
REMARK UNBOUND:                -1.048
REMARK  10 active torsions:
REMARK  status: ('A' for Active; 'I' for Inactive)
REMARK   1   A    between atoms:  C27_1   and   C6_8  
REMARK   2   A    between atoms:  C6_8    and   C5_9  
REMARK   3   A    between atoms:  C5_9    and   C3_12 
REMARK   4   A    between atoms:  C6_8    and   N7_14 
REMARK   5   A    between atoms:  C8_15   and  C10_17 
REMARK   6   A    between atoms: C10_17   and  O11_18 
REMARK   7   A    between atoms: O11_18   and  C12_19 
REMARK   8   A    between atoms: C13_20   and  C14_25 
REMARK   9   A    between atoms: C14_25   and  N15_26 
REMARK   10  A    between atoms: C24_24   and  O25_32 
ROOT
ATOM      1 C27  MOL A   1      15.718 -17.861  -3.297  1.00  0.00    -0.024 A 
ATOM      2 C28  MOL A   1      15.788 -19.253  -3.107  1.00  0.00    -0.057 A 
ATOM      3 C29  MOL A   1      15.381 -19.823  -1.895  1.00  0.00    -0.061 A 
ATOM      4 C30  MOL A   1      14.902 -19.011  -0.864  1.00  0.00    -0.048 A 
ATOM      5 C31  MOL A   1      14.825 -17.625  -1.041  1.00  0.00     0.018 A 
ATOM      6 Br32 MOL A   1      14.149 -16.516   0.363  1.00  0.00    -0.051 Br
ATOM      7 C33  MOL A   1      15.236 -17.051  -2.249  1.00  0.00    -0.043 A 
ENDROOT
BRANCH   1   8
ATOM      8  C6  MOL A   1      16.228 -17.246  -4.582  1.00  0.00     0.063 C 
BRANCH   8   9
ATOM      9  C5  MOL A   1      16.408 -15.728  -4.405  1.00  0.00     0.051 C 
BRANCH   9  12
ATOM     10  C1  MOL A   1      20.240 -15.033  -4.464  1.00  0.00     0.006 C 
ATOM     11  N2  MOL A   1      18.913 -15.452  -4.037  1.00  0.00    -0.359 N 
ATOM     12  C3  MOL A   1      17.762 -15.276  -4.870  1.00  0.00     0.222 C 
ATOM     13  O4  MOL A   1      17.880 -14.741  -6.007  1.00  0.00    -0.275 OA
ENDBRANCH   9  12
ENDBRANCH   8   9
BRANCH   8  14
ATOM     14  N7  MOL A   1      15.303 -17.532  -5.684  1.00  0.00    -0.346 N 
ATOM     15  C8  MOL A   1      15.751 -17.821  -7.010  1.00  0.00     0.258 C 
ATOM     16  O9  MOL A   1      16.982 -17.830  -7.276  1.00  0.00    -0.271 OA
BRANCH  15  17
ATOM     17 C10  MOL A   1      14.763 -18.132  -8.094  1.00  0.00     0.167 C 
BRANCH  17  18
ATOM     18 O11  MOL A   1      14.818 -19.515  -8.438  1.00  0.00    -0.480 OA
BRANCH  18  19
ATOM     19 C12  MOL A   1      14.167 -20.493  -7.682  1.00  0.00     0.166 A 
ATOM     20 C13  MOL A   1      12.766 -20.669  -7.764  1.00  0.00     0.012 A 
ATOM     21 C21  MOL A   1      12.164 -21.716  -7.047  1.00  0.00    -0.054 A 
ATOM     22 C22  MOL A   1      12.929 -22.544  -6.225  1.00  0.00    -0.058 A 
ATOM     23 C23  MOL A   1      14.303 -22.337  -6.107  1.00  0.00    -0.016 A 
ATOM     24 C24  MOL A   1      14.932 -21.307  -6.831  1.00  0.00     0.161 A 
BRANCH  20  25
ATOM     25 C14  MOL A   1      11.897 -19.758  -8.602  1.00  0.00     0.028 C 
BRANCH  25  26
ATOM     26 N15  MOL A   1      11.179 -18.795  -7.742  1.00  0.00    -0.287 NA
ATOM     27 C16  MOL A   1       9.720 -18.889  -7.923  1.00  0.00     0.064 C 
ATOM     28 C17  MOL A   1       9.632 -17.501  -8.525  1.00  0.00     0.272 C 
ATOM     29 F18  MOL A   1       8.943 -16.596  -7.735  1.00  0.00    -0.204 F 
ATOM     30 F19  MOL A   1       9.245 -17.493  -9.855  1.00  0.00    -0.204 F 
ATOM     31 C20  MOL A   1      11.135 -17.447  -8.334  1.00  0.00     0.064 C 
ENDBRANCH  25  26
ENDBRANCH  20  25
BRANCH  24  32
ATOM     32 O25  MOL A   1      16.311 -21.065  -6.739  1.00  0.00    -0.493 OA
ATOM     33 C26  MOL A   1      17.266 -21.466  -7.716  1.00  0.00     0.078 C 
ENDBRANCH  24  32
ENDBRANCH  18  19
ENDBRANCH  17  18
ENDBRANCH  15  17
ENDBRANCH   8  14
ENDBRANCH   1   8
TORSDOF 10
ENDMDL
MODEL 510
REMARK VINA RESULT:    -6.853      5.756     10.359
REMARK INTER + INTRA:         -11.908
REMARK INTER:                 -11.274
REMARK INTRA:                  -0.634
REMARK UNBOUND:                -1.048
REMARK  10 active torsions:
REMARK  status: ('A' for Active; 'I' for Inactive)
REMARK   1   A    between atoms:  C27_1   and   C6_8  
REMARK   2   A    between atoms:  C6_8    and   C5_9  
REMARK   3   A    between atoms:  C5_9    and   C3_12 
REMARK   4   A    between atoms:  C6_8    and   N7_14 
REMARK   5   A    between atoms:  C8_15   and  C10_17 
REMARK   6   A    between atoms: C10_17   and  O11_18 
REMARK   7   A    between atoms: O11_18   and  C12_19 
REMARK   8   A    between atoms: C13_20   and  C14_25 
REMARK   9   A    between atoms: C14_25   and  N15_26 
REMARK   10  A    between atoms: C24_24   and  O25_32 
ROOT
ATOM      1 C27  MOL A   1       8.766 -17.797  -9.647  1.00  0.00    -0.024 A 
ATOM      2 C28  MOL A   1       8.267 -17.762  -8.332  1.00  0.00    -0.057 A 
ATOM      3 C29  MOL A   1       7.069 -17.096  -8.048  1.00  0.00    -0.061 A 
ATOM      4 C30  MOL A   1       6.361 -16.459  -9.071  1.00  0.00    -0.048 A 
ATOM      5 C31  MOL A   1       6.846 -16.489 -10.383  1.00  0.00     0.018 A 
ATOM      6 Br32 MOL A   1       5.864 -15.637 -11.787  1.00  0.00    -0.051 Br
ATOM      7 C33  MOL A   1       8.045 -17.150 -10.670  1.00  0.00    -0.043 A 
ENDROOT
BRANCH   1   8
ATOM      8  C6  MOL A   1      10.098 -18.457  -9.933  1.00  0.00     0.063 C 
BRANCH   8   9
ATOM      9  C5  MOL A   1       9.877 -19.802 -10.647  1.00  0.00     0.051 C 
BRANCH   9  12
ATOM     10  C1  MOL A   1       7.076 -22.005  -9.073  1.00  0.00     0.006 C 
ATOM     11  N2  MOL A   1       7.779 -21.046  -9.914  1.00  0.00    -0.359 N 
ATOM     12  C3  MOL A   1       9.179 -20.790  -9.757  1.00  0.00     0.222 C 
ATOM     13  O4  MOL A   1       9.838 -21.396  -8.869  1.00  0.00    -0.275 OA
ENDBRANCH   9  12
ENDBRANCH   8   9
BRANCH   8  14
ATOM     14  N7  MOL A   1      10.848 -18.650  -8.687  1.00  0.00    -0.346 N 
ATOM     15  C8  MOL A   1      12.276 -18.649  -8.641  1.00  0.00     0.258 C 
ATOM     16  O9  MOL A   1      12.946 -18.489  -9.696  1.00  0.00    -0.271 OA
BRANCH  15  17
ATOM     17 C10  MOL A   1      12.993 -18.826  -7.336  1.00  0.00     0.167 C 
BRANCH  17  18
ATOM     18 O11  MOL A   1      14.298 -18.256  -7.402  1.00  0.00    -0.480 OA
BRANCH  18  19
ATOM     19 C12  MOL A   1      15.236 -18.432  -6.382  1.00  0.00     0.166 A 
ATOM     20 C13  MOL A   1      15.223 -17.616  -5.227  1.00  0.00     0.012 A 
ATOM     21 C21  MOL A   1      16.135 -17.879  -4.192  1.00  0.00    -0.054 A 
ATOM     22 C22  MOL A   1      17.075 -18.902  -4.319  1.00  0.00    -0.058 A 
ATOM     23 C23  MOL A   1      17.119 -19.673  -5.480  1.00  0.00    -0.016 A 
ATOM     24 C24  MOL A   1      16.203 -19.441  -6.523  1.00  0.00     0.161 A 
BRANCH  20  25
ATOM     25 C14  MOL A   1      14.254 -16.465  -5.077  1.00  0.00     0.028 C 
BRANCH  25  26
ATOM     26 N15  MOL A   1      14.854 -15.215  -5.587  1.00  0.00    -0.287 NA
ATOM     27 C16  MOL A   1      13.882 -14.424  -6.361  1.00  0.00     0.064 C 
ATOM     28 C17  MOL A   1      14.649 -14.613  -7.655  1.00  0.00     0.272 C 
ATOM     29 F18  MOL A   1      15.198 -13.443  -8.152  1.00  0.00    -0.204 F 
ATOM     30 F19  MOL A   1      13.967 -15.360  -8.602  1.00  0.00    -0.204 F 
ATOM     31 C20  MOL A   1      15.619 -15.432  -6.827  1.00  0.00     0.064 C 
ENDBRANCH  25  26
ENDBRANCH  20  25
BRANCH  24  32
ATOM     32 O25  MOL A   1      16.215 -20.193  -7.707  1.00  0.00    -0.493 OA
ATOM     33 C26  MOL A   1      16.374 -21.607  -7.762  1.00  0.00     0.078 C 
ENDBRANCH  24  32
ENDBRANCH  18  19
ENDBRANCH  17  18
ENDBRANCH  15  17
ENDBRANCH   8  14
ENDBRANCH   1   8
TORSDOF 10
ENDMDL
MODEL 511
REMARK VINA RESULT:    -6.853      7.704     11.379
REMARK INTER + INTRA:         -11.908
REMARK INTER:                 -10.945
REMARK INTRA:                  -0.963
REMARK UNBOUND:                -1.048
REMARK  10 active torsions:
REMARK  status: ('A' for Active; 'I' for Inactive)
REMARK   1   A    between atoms:  C27_1   and   C6_8  
REMARK   2   A    between atoms:  C6_8    and   C5_9  
REMARK   3   A    between atoms:  C5_9    and   C3_12 
REMARK   4   A    between atoms:  C6_8    and   N7_14 
REMARK   5   A    between atoms:  C8_15   and  C10_17 
REMARK   6   A    between atoms: C10_17   and  O11_18 
REMARK   7   A    between atoms: O11_18   and  C12_19 
REMARK   8   A    between atoms: C13_20   and  C14_25 
REMARK   9   A    between atoms: C14_25   and  N15_26 
REMARK   10  A    between atoms: C24_24   and  O25_32 
ROOT
ATOM      1 C27  MOL A   1      16.923 -18.876  -4.286  1.00  0.00    -0.024 A 
ATOM      2 C28  MOL A   1      17.153 -17.524  -3.973  1.00  0.00    -0.057 A 
ATOM      3 C29  MOL A   1      16.751 -17.006  -2.737  1.00  0.00    -0.061 A 
ATOM      4 C30  MOL A   1      16.115 -17.830  -1.805  1.00  0.00    -0.048 A 
ATOM      5 C31  MOL A   1      15.882 -19.177  -2.103  1.00  0.00     0.018 A 
ATOM      6 Br32 MOL A   1      15.030 -20.309  -0.817  1.00  0.00    -0.051 Br
ATOM      7 C33  MOL A   1      16.278 -19.697  -3.339  1.00  0.00    -0.043 A 
ENDROOT
BRANCH   1   8
ATOM      8  C6  MOL A   1      17.295 -19.411  -5.652  1.00  0.00     0.063 C 
BRANCH   8   9
ATOM      9  C5  MOL A   1      18.700 -18.918  -6.046  1.00  0.00     0.051 C 
BRANCH   9  12
ATOM     10  C1  MOL A   1      20.274 -21.622  -8.367  1.00  0.00     0.006 C 
ATOM     11  N2  MOL A   1      19.787 -20.918  -7.189  1.00  0.00    -0.359 N 
ATOM     12  C3  MOL A   1      19.202 -19.614  -7.278  1.00  0.00     0.222 C 
ATOM     13  O4  MOL A   1      19.101 -19.041  -8.397  1.00  0.00    -0.275 OA
ENDBRANCH   9  12
ENDBRANCH   8   9
BRANCH   8  14
ATOM     14  N7  MOL A   1      16.304 -18.993  -6.649  1.00  0.00    -0.346 N 
ATOM     15  C8  MOL A   1      15.438 -19.920  -7.307  1.00  0.00     0.258 C 
ATOM     16  O9  MOL A   1      15.511 -21.151  -7.049  1.00  0.00    -0.271 OA
BRANCH  15  17
ATOM     17 C10  MOL A   1      14.423 -19.437  -8.300  1.00  0.00     0.167 C 
BRANCH  17  18
ATOM     18 O11  MOL A   1      14.564 -18.034  -8.514  1.00  0.00    -0.480 OA
BRANCH  18  19
ATOM     19 C12  MOL A   1      13.867 -17.094  -7.751  1.00  0.00     0.166 A 
ATOM     20 C13  MOL A   1      12.458 -17.143  -7.638  1.00  0.00     0.012 A 
ATOM     21 C21  MOL A   1      11.806 -16.227  -6.797  1.00  0.00    -0.054 A 
ATOM     22 C22  MOL A   1      12.532 -15.248  -6.117  1.00  0.00    -0.058 A 
ATOM     23 C23  MOL A   1      13.916 -15.170  -6.269  1.00  0.00    -0.016 A 
ATOM     24 C24  MOL A   1      14.594 -16.090  -7.091  1.00  0.00     0.161 A 
BRANCH  20  25
ATOM     25 C14  MOL A   1      11.633 -18.156  -8.401  1.00  0.00     0.028 C 
BRANCH  25  26
ATOM     26 N15  MOL A   1      10.415 -18.505  -7.642  1.00  0.00    -0.287 NA
ATOM     27 C16  MOL A   1      10.378 -19.938  -7.305  1.00  0.00     0.064 C 
ATOM     28 C17  MOL A   1       9.173 -20.190  -8.191  1.00  0.00     0.272 C 
ATOM     29 F18  MOL A   1       8.032 -20.538  -7.490  1.00  0.00    -0.204 F 
ATOM     30 F19  MOL A   1       9.440 -21.012  -9.273  1.00  0.00    -0.204 F 
ATOM     31 C20  MOL A   1       9.252 -18.713  -8.522  1.00  0.00     0.064 C 
ENDBRANCH  25  26
ENDBRANCH  20  25
BRANCH  24  32
ATOM     32 O25  MOL A   1      15.984 -16.045  -7.271  1.00  0.00    -0.493 OA
ATOM     33 C26  MOL A   1      16.772 -14.864  -7.166  1.00  0.00     0.078 C 
ENDBRANCH  24  32
ENDBRANCH  18  19
ENDBRANCH  17  18
ENDBRANCH  15  17
ENDBRANCH   8  14
ENDBRANCH   1   8
TORSDOF 10
ENDMDL
MODEL 512
REMARK VINA RESULT:    -6.853      5.492      8.958
REMARK INTER + INTRA:         -11.907
REMARK INTER:                 -10.728
REMARK INTRA:                  -1.179
REMARK UNBOUND:                -1.048
REMARK  10 active torsions:
REMARK  status: ('A' for Active; 'I' for Inactive)
REMARK   1   A    between atoms:  C27_1   and   C6_8  
REMARK   2   A    between atoms:  C6_8    and   C5_9  
REMARK   3   A    between atoms:  C5_9    and   C3_12 
REMARK   4   A    between atoms:  C6_8    and   N7_14 
REMARK   5   A    between atoms:  C8_15   and  C10_17 
REMARK   6   A    between atoms: C10_17   and  O11_18 
REMARK   7   A    between atoms: O11_18   and  C12_19 
REMARK   8   A    between atoms: C13_20   and  C14_25 
REMARK   9   A    between atoms: C14_25   and  N15_26 
REMARK   10  A    between atoms: C24_24   and  O25_32 
ROOT
ATOM      1 C27  MOL A   1      15.842 -19.027  -7.327  1.00  0.00    -0.024 A 
ATOM      2 C28  MOL A   1      16.900 -18.394  -6.648  1.00  0.00    -0.057 A 
ATOM      3 C29  MOL A   1      18.146 -19.021  -6.542  1.00  0.00    -0.061 A 
ATOM      4 C30  MOL A   1      18.348 -20.282  -7.109  1.00  0.00    -0.048 A 
ATOM      5 C31  MOL A   1      17.305 -20.920  -7.790  1.00  0.00     0.018 A 
ATOM      6 Br32 MOL A   1      17.590 -22.637  -8.585  1.00  0.00    -0.051 Br
ATOM      7 C33  MOL A   1      16.056 -20.299  -7.894  1.00  0.00    -0.043 A 
ENDROOT
BRANCH   1   8
ATOM      8  C6  MOL A   1      14.477 -18.375  -7.375  1.00  0.00     0.063 C 
BRANCH   8   9
ATOM      9  C5  MOL A   1      14.287 -17.457  -6.154  1.00  0.00     0.051 C 
BRANCH   9  12
ATOM     10  C1  MOL A   1      14.659 -14.038  -7.981  1.00  0.00     0.006 C 
ATOM     11  N2  MOL A   1      14.875 -15.412  -7.553  1.00  0.00    -0.359 N 
ATOM     12  C3  MOL A   1      14.045 -16.034  -6.567  1.00  0.00     0.222 C 
ATOM     13  O4  MOL A   1      13.099 -15.389  -6.038  1.00  0.00    -0.275 OA
ENDBRANCH   9  12
ENDBRANCH   8   9
BRANCH   8  14
ATOM     14  N7  MOL A   1      13.426 -19.398  -7.420  1.00  0.00    -0.346 N 
ATOM     15  C8  MOL A   1      12.105 -19.123  -7.890  1.00  0.00     0.258 C 
ATOM     16  O9  MOL A   1      11.796 -17.965  -8.277  1.00  0.00    -0.271 OA
BRANCH  15  17
ATOM     17 C10  MOL A   1      11.076 -20.213  -7.940  1.00  0.00     0.167 C 
BRANCH  17  18
ATOM     18 O11  MOL A   1      10.760 -20.539  -9.291  1.00  0.00    -0.480 OA
BRANCH  18  19
ATOM     19 C12  MOL A   1       9.491 -20.988  -9.668  1.00  0.00     0.166 A 
ATOM     20 C13  MOL A   1       8.480 -20.080 -10.056  1.00  0.00     0.012 A 
ATOM     21 C21  MOL A   1       7.245 -20.580 -10.503  1.00  0.00    -0.054 A 
ATOM     22 C22  MOL A   1       7.001 -21.953 -10.519  1.00  0.00    -0.058 A 
ATOM     23 C23  MOL A   1       7.983 -22.845 -10.087  1.00  0.00    -0.016 A 
ATOM     24 C24  MOL A   1       9.234 -22.369  -9.654  1.00  0.00     0.161 A 
BRANCH  20  25
ATOM     25 C14  MOL A   1       8.689 -18.583 -10.002  1.00  0.00     0.028 C 
BRANCH  25  26
ATOM     26 N15  MOL A   1       8.341 -18.061  -8.665  1.00  0.00    -0.287 NA
ATOM     27 C16  MOL A   1       6.899 -18.186  -8.394  1.00  0.00     0.064 C 
ATOM     28 C17  MOL A   1       6.698 -16.684  -8.371  1.00  0.00     0.272 C 
ATOM     29 F18  MOL A   1       6.351 -16.188  -7.127  1.00  0.00    -0.204 F 
ATOM     30 F19  MOL A   1       5.905 -16.212  -9.404  1.00  0.00    -0.204 F 
ATOM     31 C20  MOL A   1       8.183 -16.596  -8.664  1.00  0.00     0.064 C 
ENDBRANCH  25  26
ENDBRANCH  20  25
BRANCH  24  32
ATOM     32 O25  MOL A   1      10.248 -23.232  -9.212  1.00  0.00    -0.493 OA
ATOM     33 C26  MOL A   1      10.617 -24.441  -9.866  1.00  0.00     0.078 C 
ENDBRANCH  24  32
ENDBRANCH  18  19
ENDBRANCH  17  18
ENDBRANCH  15  17
ENDBRANCH   8  14
ENDBRANCH   1   8
TORSDOF 10
ENDMDL
MODEL 513
REMARK VINA RESULT:    -6.853      4.826      9.495
REMARK INTER + INTRA:         -11.907
REMARK INTER:                 -11.048
REMARK INTRA:                  -0.859
REMARK UNBOUND:                -1.048
REMARK  10 active torsions:
REMARK  status: ('A' for Active; 'I' for Inactive)
REMARK   1   A    between atoms:  C27_1   and   C6_8  
REMARK   2   A    between atoms:  C6_8    and   C5_9  
REMARK   3   A    between atoms:  C5_9    and   C3_12 
REMARK   4   A    between atoms:  C6_8    and   N7_14 
REMARK   5   A    between atoms:  C8_15   and  C10_17 
REMARK   6   A    between atoms: C10_17   and  O11_18 
REMARK   7   A    between atoms: O11_18   and  C12_19 
REMARK   8   A    between atoms: C13_20   and  C14_25 
REMARK   9   A    between atoms: C14_25   and  N15_26 
REMARK   10  A    between atoms: C24_24   and  O25_32 
ROOT
ATOM      1 C27  MOL A   1       6.625 -18.562  -8.896  1.00  0.00    -0.024 A 
ATOM      2 C28  MOL A   1       5.714 -18.576  -7.824  1.00  0.00    -0.057 A 
ATOM      3 C29  MOL A   1       4.908 -19.697  -7.594  1.00  0.00    -0.061 A 
ATOM      4 C30  MOL A   1       5.004 -20.812  -8.431  1.00  0.00    -0.048 A 
ATOM      5 C31  MOL A   1       5.908 -20.813  -9.499  1.00  0.00     0.018 A 
ATOM      6 Br32 MOL A   1       6.053 -22.349 -10.630  1.00  0.00    -0.051 Br
ATOM      7 C33  MOL A   1       6.711 -19.692  -9.735  1.00  0.00    -0.043 A 
ENDROOT
BRANCH   1   8
ATOM      8  C6  MOL A   1       7.440 -17.319  -9.181  1.00  0.00     0.063 C 
BRANCH   8   9
ATOM      9  C5  MOL A   1       7.298 -16.924 -10.662  1.00  0.00     0.051 C 
BRANCH   9  12
ATOM     10  C1  MOL A   1       4.897 -14.383 -12.380  1.00  0.00     0.006 C 
ATOM     11  N2  MOL A   1       5.949 -15.363 -12.157  1.00  0.00    -0.359 N 
ATOM     12  C3  MOL A   1       6.212 -15.906 -10.858  1.00  0.00     0.222 C 
ATOM     13  O4  MOL A   1       5.527 -15.532  -9.867  1.00  0.00    -0.275 OA
ENDBRANCH   9  12
ENDBRANCH   8   9
BRANCH   8  14
ATOM     14  N7  MOL A   1       8.849 -17.546  -8.841  1.00  0.00    -0.346 N 
ATOM     15  C8  MOL A   1       9.796 -18.054  -9.783  1.00  0.00     0.258 C 
ATOM     16  O9  MOL A   1       9.435 -18.337 -10.956  1.00  0.00    -0.271 OA
BRANCH  15  17
ATOM     17 C10  MOL A   1      11.230 -18.242  -9.390  1.00  0.00     0.167 C 
BRANCH  17  18
ATOM     18 O11  MOL A   1      11.352 -18.323  -7.971  1.00  0.00    -0.480 OA
BRANCH  18  19
ATOM     19 C12  MOL A   1      12.338 -19.098  -7.355  1.00  0.00     0.166 A 
ATOM     20 C13  MOL A   1      12.177 -20.494  -7.195  1.00  0.00     0.012 A 
ATOM     21 C21  MOL A   1      13.227 -21.245  -6.642  1.00  0.00    -0.054 A 
ATOM     22 C22  MOL A   1      14.397 -20.619  -6.211  1.00  0.00    -0.058 A 
ATOM     23 C23  MOL A   1      14.533 -19.235  -6.324  1.00  0.00    -0.016 A 
ATOM     24 C24  MOL A   1      13.503 -18.463  -6.894  1.00  0.00     0.161 A 
BRANCH  20  25
ATOM     25 C14  MOL A   1      10.903 -21.200  -7.601  1.00  0.00     0.028 C 
BRANCH  25  26
ATOM     26 N15  MOL A   1      11.037 -21.766  -8.959  1.00  0.00    -0.287 NA
ATOM     27 C16  MOL A   1       9.750 -21.769  -9.674  1.00  0.00     0.064 C 
ATOM     28 C17  MOL A   1       9.685 -23.284  -9.700  1.00  0.00     0.272 C 
ATOM     29 F18  MOL A   1       9.789 -23.822 -10.971  1.00  0.00    -0.204 F 
ATOM     30 F19  MOL A   1       8.646 -23.811  -8.951  1.00  0.00    -0.204 F 
ATOM     31 C20  MOL A   1      11.004 -23.239  -8.953  1.00  0.00     0.064 C 
ENDBRANCH  25  26
ENDBRANCH  20  25
BRANCH  24  32
ATOM     32 O25  MOL A   1      13.600 -17.071  -7.025  1.00  0.00    -0.493 OA
ATOM     33 C26  MOL A   1      14.373 -16.407  -8.020  1.00  0.00     0.078 C 
ENDBRANCH  24  32
ENDBRANCH  18  19
ENDBRANCH  17  18
ENDBRANCH  15  17
ENDBRANCH   8  14
ENDBRANCH   1   8
TORSDOF 10
ENDMDL
MODEL 514
REMARK VINA RESULT:    -6.852      3.963      6.724
REMARK INTER + INTRA:         -11.906
REMARK INTER:                 -12.317
REMARK INTRA:                   0.411
REMARK UNBOUND:                -1.048
REMARK  10 active torsions:
REMARK  status: ('A' for Active; 'I' for Inactive)
REMARK   1   A    between atoms:  C27_1   and   C6_8  
REMARK   2   A    between atoms:  C6_8    and   C5_9  
REMARK   3   A    between atoms:  C5_9    and   C3_12 
REMARK   4   A    between atoms:  C6_8    and   N7_14 
REMARK   5   A    between atoms:  C8_15   and  C10_17 
REMARK   6   A    between atoms: C10_17   and  O11_18 
REMARK   7   A    between atoms: O11_18   and  C12_19 
REMARK   8   A    between atoms: C13_20   and  C14_25 
REMARK   9   A    between atoms: C14_25   and  N15_26 
REMARK   10  A    between atoms: C24_24   and  O25_32 
ROOT
ATOM      1 C27  MOL A   1       2.469 -21.946  -8.768  1.00  0.00    -0.024 A 
ATOM      2 C28  MOL A   1       1.795 -21.282  -7.727  1.00  0.00    -0.057 A 
ATOM      3 C29  MOL A   1       0.417 -21.055  -7.809  1.00  0.00    -0.061 A 
ATOM      4 C30  MOL A   1      -0.300 -21.487  -8.929  1.00  0.00    -0.048 A 
ATOM      5 C31  MOL A   1       0.358 -22.151  -9.969  1.00  0.00     0.018 A 
ATOM      6 Br32 MOL A   1      -0.627 -22.762 -11.491  1.00  0.00    -0.051 Br
ATOM      7 C33  MOL A   1       1.737 -22.375  -9.893  1.00  0.00    -0.043 A 
ENDROOT
BRANCH   1   8
ATOM      8  C6  MOL A   1       3.971 -22.123  -8.705  1.00  0.00     0.063 C 
BRANCH   8   9
ATOM      9  C5  MOL A   1       4.494 -21.701  -7.320  1.00  0.00     0.051 C 
BRANCH   9  12
ATOM     10  C1  MOL A   1       5.293 -17.892  -7.466  1.00  0.00     0.006 C 
ATOM     11  N2  MOL A   1       4.576 -19.157  -7.408  1.00  0.00    -0.359 N 
ATOM     12  C3  MOL A   1       5.262 -20.413  -7.390  1.00  0.00     0.222 C 
ATOM     13  O4  MOL A   1       6.523 -20.446  -7.430  1.00  0.00    -0.275 OA
ENDBRANCH   9  12
ENDBRANCH   8   9
BRANCH   8  14
ATOM     14  N7  MOL A   1       4.620 -21.340  -9.762  1.00  0.00    -0.346 N 
ATOM     15  C8  MOL A   1       5.774 -21.805 -10.465  1.00  0.00     0.258 C 
ATOM     16  O9  MOL A   1       6.284 -22.922 -10.182  1.00  0.00    -0.271 OA
BRANCH  15  17
ATOM     17 C10  MOL A   1       6.383 -20.976 -11.556  1.00  0.00     0.167 C 
BRANCH  17  18
ATOM     18 O11  MOL A   1       7.793 -20.871 -11.375  1.00  0.00    -0.480 OA
BRANCH  18  19
ATOM     19 C12  MOL A   1       8.356 -20.039 -10.404  1.00  0.00     0.166 A 
ATOM     20 C13  MOL A   1       7.867 -18.730 -10.189  1.00  0.00     0.012 A 
ATOM     21 C21  MOL A   1       8.410 -17.957  -9.150  1.00  0.00    -0.054 A 
ATOM     22 C22  MOL A   1       9.453 -18.454  -8.368  1.00  0.00    -0.058 A 
ATOM     23 C23  MOL A   1       9.968 -19.727  -8.614  1.00  0.00    -0.016 A 
ATOM     24 C24  MOL A   1       9.427 -20.527  -9.637  1.00  0.00     0.161 A 
BRANCH  20  25
ATOM     25 C14  MOL A   1       6.774 -18.137 -11.051  1.00  0.00     0.028 C 
BRANCH  25  26
ATOM     26 N15  MOL A   1       7.115 -16.752 -11.436  1.00  0.00    -0.287 NA
ATOM     27 C16  MOL A   1       6.374 -15.767 -10.630  1.00  0.00     0.064 C 
ATOM     28 C17  MOL A   1       5.589 -15.269 -11.827  1.00  0.00     0.272 C 
ATOM     29 F18  MOL A   1       5.886 -13.965 -12.183  1.00  0.00    -0.204 F 
ATOM     30 F19  MOL A   1       4.231 -15.535 -11.753  1.00  0.00    -0.204 F 
ATOM     31 C20  MOL A   1       6.362 -16.304 -12.620  1.00  0.00     0.064 C 
ENDBRANCH  25  26
ENDBRANCH  20  25
BRANCH  24  32
ATOM     32 O25  MOL A   1       9.917 -21.811  -9.917  1.00  0.00    -0.493 OA
ATOM     33 C26  MOL A   1       9.401 -22.667 -10.931  1.00  0.00     0.078 C 
ENDBRANCH  24  32
ENDBRANCH  18  19
ENDBRANCH  17  18
ENDBRANCH  15  17
ENDBRANCH   8  14
ENDBRANCH   1   8
TORSDOF 10
ENDMDL
MODEL 515
REMARK VINA RESULT:    -6.850      7.395     10.712
REMARK INTER + INTRA:         -11.903
REMARK INTER:                 -11.220
REMARK INTRA:                  -0.683
REMARK UNBOUND:                -1.048
REMARK  10 active torsions:
REMARK  status: ('A' for Active; 'I' for Inactive)
REMARK   1   A    between atoms:  C27_1   and   C6_8  
REMARK   2   A    between atoms:  C6_8    and   C5_9  
REMARK   3   A    between atoms:  C5_9    and   C3_12 
REMARK   4   A    between atoms:  C6_8    and   N7_14 
REMARK   5   A    between atoms:  C8_15   and  C10_17 
REMARK   6   A    between atoms: C10_17   and  O11_18 
REMARK   7   A    between atoms: O11_18   and  C12_19 
REMARK   8   A    between atoms: C13_20   and  C14_25 
REMARK   9   A    between atoms: C14_25   and  N15_26 
REMARK   10  A    between atoms: C24_24   and  O25_32 
ROOT
ATOM      1 C27  MOL A   1      17.723 -17.757  -8.882  1.00  0.00    -0.024 A 
ATOM      2 C28  MOL A   1      18.603 -18.854  -8.915  1.00  0.00    -0.057 A 
ATOM      3 C29  MOL A   1      19.508 -19.004  -9.971  1.00  0.00    -0.061 A 
ATOM      4 C30  MOL A   1      19.543 -18.063 -11.004  1.00  0.00    -0.048 A 
ATOM      5 C31  MOL A   1      18.675 -16.965 -10.982  1.00  0.00     0.018 A 
ATOM      6 Br32 MOL A   1      18.739 -15.665 -12.384  1.00  0.00    -0.051 Br
ATOM      7 C33  MOL A   1      17.766 -16.815  -9.930  1.00  0.00    -0.043 A 
ENDROOT
BRANCH   1   8
ATOM      8  C6  MOL A   1      16.699 -17.641  -7.774  1.00  0.00     0.063 C 
BRANCH   8   9
ATOM      9  C5  MOL A   1      16.882 -18.788  -6.765  1.00  0.00     0.051 C 
BRANCH   9  12
ATOM     10  C1  MOL A   1      16.997 -17.350  -3.146  1.00  0.00     0.006 C 
ATOM     11  N2  MOL A   1      16.515 -17.832  -4.433  1.00  0.00    -0.359 N 
ATOM     12  C3  MOL A   1      17.411 -18.287  -5.452  1.00  0.00     0.222 C 
ATOM     13  O4  MOL A   1      18.656 -18.273  -5.252  1.00  0.00    -0.275 OA
ENDBRANCH   9  12
ENDBRANCH   8   9
BRANCH   8  14
ATOM     14  N7  MOL A   1      15.342 -17.656  -8.333  1.00  0.00    -0.346 N 
ATOM     15  C8  MOL A   1      14.768 -18.822  -8.926  1.00  0.00     0.258 C 
ATOM     16  O9  MOL A   1      15.430 -19.892  -8.996  1.00  0.00    -0.271 OA
BRANCH  15  17
ATOM     17 C10  MOL A   1      13.367 -18.791  -9.458  1.00  0.00     0.167 C 
BRANCH  17  18
ATOM     18 O11  MOL A   1      12.425 -18.895  -8.393  1.00  0.00    -0.480 OA
BRANCH  18  19
ATOM     19 C12  MOL A   1      11.289 -18.084  -8.325  1.00  0.00     0.166 A 
ATOM     20 C13  MOL A   1      10.123 -18.396  -9.061  1.00  0.00     0.012 A 
ATOM     21 C21  MOL A   1       8.978 -17.598  -8.902  1.00  0.00    -0.054 A 
ATOM     22 C22  MOL A   1       9.003 -16.482  -8.066  1.00  0.00    -0.058 A 
ATOM     23 C23  MOL A   1      10.171 -16.147  -7.379  1.00  0.00    -0.016 A 
ATOM     24 C24  MOL A   1      11.324 -16.943  -7.507  1.00  0.00     0.161 A 
BRANCH  20  25
ATOM     25 C14  MOL A   1      10.075 -19.567 -10.018  1.00  0.00     0.028 C 
BRANCH  25  26
ATOM     26 N15  MOL A   1       9.113 -20.583  -9.542  1.00  0.00    -0.287 NA
ATOM     27 C16  MOL A   1       9.746 -21.905  -9.405  1.00  0.00     0.064 C 
ATOM     28 C17  MOL A   1       8.908 -22.503 -10.518  1.00  0.00     0.272 C 
ATOM     29 F18  MOL A   1       8.018 -23.471 -10.085  1.00  0.00    -0.204 F 
ATOM     30 F19  MOL A   1       9.643 -22.875 -11.632  1.00  0.00    -0.204 F 
ATOM     31 C20  MOL A   1       8.290 -21.124 -10.637  1.00  0.00     0.064 C 
ENDBRANCH  25  26
ENDBRANCH  20  25
BRANCH  24  32
ATOM     32 O25  MOL A   1      12.517 -16.640  -6.835  1.00  0.00    -0.493 OA
ATOM     33 C26  MOL A   1      12.891 -15.335  -6.407  1.00  0.00     0.078 C 
ENDBRANCH  24  32
ENDBRANCH  18  19
ENDBRANCH  17  18
ENDBRANCH  15  17
ENDBRANCH   8  14
ENDBRANCH   1   8
TORSDOF 10
ENDMDL
MODEL 516
REMARK VINA RESULT:    -6.850      5.503      9.175
REMARK INTER + INTRA:         -11.903
REMARK INTER:                 -10.725
REMARK INTRA:                  -1.177
REMARK UNBOUND:                -1.048
REMARK  10 active torsions:
REMARK  status: ('A' for Active; 'I' for Inactive)
REMARK   1   A    between atoms:  C27_1   and   C6_8  
REMARK   2   A    between atoms:  C6_8    and   C5_9  
REMARK   3   A    between atoms:  C5_9    and   C3_12 
REMARK   4   A    between atoms:  C6_8    and   N7_14 
REMARK   5   A    between atoms:  C8_15   and  C10_17 
REMARK   6   A    between atoms: C10_17   and  O11_18 
REMARK   7   A    between atoms: O11_18   and  C12_19 
REMARK   8   A    between atoms: C13_20   and  C14_25 
REMARK   9   A    between atoms: C14_25   and  N15_26 
REMARK   10  A    between atoms: C24_24   and  O25_32 
ROOT
ATOM      1 C27  MOL A   1      15.606 -17.452  -8.132  1.00  0.00    -0.024 A 
ATOM      2 C28  MOL A   1      16.428 -16.431  -8.644  1.00  0.00    -0.057 A 
ATOM      3 C29  MOL A   1      17.575 -16.748  -9.379  1.00  0.00    -0.061 A 
ATOM      4 C30  MOL A   1      17.914 -18.084  -9.608  1.00  0.00    -0.048 A 
ATOM      5 C31  MOL A   1      17.104 -19.109  -9.107  1.00  0.00     0.018 A 
ATOM      6 Br32 MOL A   1      17.557 -20.938  -9.440  1.00  0.00    -0.051 Br
ATOM      7 C33  MOL A   1      15.959 -18.796  -8.368  1.00  0.00    -0.043 A 
ENDROOT
BRANCH   1   8
ATOM      8  C6  MOL A   1      14.407 -17.102  -7.278  1.00  0.00     0.063 C 
BRANCH   8   9
ATOM      9  C5  MOL A   1      14.853 -16.826  -5.830  1.00  0.00     0.051 C 
BRANCH   9  12
ATOM     10  C1  MOL A   1      14.200 -13.748  -3.534  1.00  0.00     0.006 C 
ATOM     11  N2  MOL A   1      14.601 -15.065  -4.008  1.00  0.00    -0.359 N 
ATOM     12  C3  MOL A   1      14.420 -15.464  -5.371  1.00  0.00     0.222 C 
ATOM     13  O4  MOL A   1      13.896 -14.669  -6.198  1.00  0.00    -0.275 OA
ENDBRANCH   9  12
ENDBRANCH   8   9
BRANCH   8  14
ATOM     14  N7  MOL A   1      13.421 -18.187  -7.316  1.00  0.00    -0.346 N 
ATOM     15  C8  MOL A   1      12.015 -17.946  -7.402  1.00  0.00     0.258 C 
ATOM     16  O9  MOL A   1      11.574 -16.767  -7.437  1.00  0.00    -0.271 OA
BRANCH  15  17
ATOM     17 C10  MOL A   1      11.052 -19.093  -7.465  1.00  0.00     0.167 C 
BRANCH  17  18
ATOM     18 O11  MOL A   1      11.132 -19.744  -8.731  1.00  0.00    -0.480 OA
BRANCH  18  19
ATOM     19 C12  MOL A   1      10.234 -20.745  -9.109  1.00  0.00     0.166 A 
ATOM     20 C13  MOL A   1       8.960 -20.425  -9.632  1.00  0.00     0.012 A 
ATOM     21 C21  MOL A   1       8.120 -21.462 -10.072  1.00  0.00    -0.054 A 
ATOM     22 C22  MOL A   1       8.516 -22.794  -9.951  1.00  0.00    -0.058 A 
ATOM     23 C23  MOL A   1       9.752 -23.109  -9.388  1.00  0.00    -0.016 A 
ATOM     24 C24  MOL A   1      10.619 -22.087  -8.958  1.00  0.00     0.161 A 
BRANCH  20  25
ATOM     25 C14  MOL A   1       8.475 -18.996  -9.730  1.00  0.00     0.028 C 
BRANCH  25  26
ATOM     26 N15  MOL A   1       7.884 -18.563  -8.447  1.00  0.00    -0.287 NA
ATOM     27 C16  MOL A   1       6.414 -18.503  -8.520  1.00  0.00     0.064 C 
ATOM     28 C17  MOL A   1       6.394 -16.997  -8.349  1.00  0.00     0.272 C 
ATOM     29 F18  MOL A   1       5.823 -16.581  -7.159  1.00  0.00    -0.204 F 
ATOM     30 F19  MOL A   1       5.930 -16.316  -9.462  1.00  0.00    -0.204 F 
ATOM     31 C20  MOL A   1       7.905 -17.098  -8.292  1.00  0.00     0.064 C 
ENDBRANCH  25  26
ENDBRANCH  20  25
BRANCH  24  32
ATOM     32 O25  MOL A   1      11.870 -22.362  -8.386  1.00  0.00    -0.493 OA
ATOM     33 C26  MOL A   1      12.140 -22.332  -6.988  1.00  0.00     0.078 C 
ENDBRANCH  24  32
ENDBRANCH  18  19
ENDBRANCH  17  18
ENDBRANCH  15  17
ENDBRANCH   8  14
ENDBRANCH   1   8
TORSDOF 10
ENDMDL
MODEL 517
REMARK VINA RESULT:    -6.847      6.188      9.131
REMARK INTER + INTRA:         -11.898
REMARK INTER:                 -10.449
REMARK INTRA:                  -1.449
REMARK UNBOUND:                -1.048
REMARK  10 active torsions:
REMARK  status: ('A' for Active; 'I' for Inactive)
REMARK   1   A    between atoms:  C27_1   and   C6_8  
REMARK   2   A    between atoms:  C6_8    and   C5_9  
REMARK   3   A    between atoms:  C5_9    and   C3_12 
REMARK   4   A    between atoms:  C6_8    and   N7_14 
REMARK   5   A    between atoms:  C8_15   and  C10_17 
REMARK   6   A    between atoms: C10_17   and  O11_18 
REMARK   7   A    between atoms: O11_18   and  C12_19 
REMARK   8   A    between atoms: C13_20   and  C14_25 
REMARK   9   A    between atoms: C14_25   and  N15_26 
REMARK   10  A    between atoms: C24_24   and  O25_32 
ROOT
ATOM      1 C27  MOL A   1      14.314 -20.272  -6.068  1.00  0.00    -0.024 A 
ATOM      2 C28  MOL A   1      14.960 -20.090  -4.832  1.00  0.00    -0.057 A 
ATOM      3 C29  MOL A   1      15.872 -19.043  -4.658  1.00  0.00    -0.061 A 
ATOM      4 C30  MOL A   1      16.147 -18.170  -5.714  1.00  0.00    -0.048 A 
ATOM      5 C31  MOL A   1      15.508 -18.338  -6.948  1.00  0.00     0.018 A 
ATOM      6 Br32 MOL A   1      15.869 -17.129  -8.386  1.00  0.00    -0.051 Br
ATOM      7 C33  MOL A   1      14.600 -19.387  -7.127  1.00  0.00    -0.043 A 
ENDROOT
BRANCH   1   8
ATOM      8  C6  MOL A   1      13.384 -21.449  -6.270  1.00  0.00     0.063 C 
BRANCH   8   9
ATOM      9  C5  MOL A   1      14.195 -22.757  -6.332  1.00  0.00     0.051 C 
BRANCH   9  12
ATOM     10  C1  MOL A   1      11.633 -25.690  -6.312  1.00  0.00     0.006 C 
ATOM     11  N2  MOL A   1      12.472 -24.579  -5.889  1.00  0.00    -0.359 N 
ATOM     12  C3  MOL A   1      13.350 -23.907  -6.798  1.00  0.00     0.222 C 
ATOM     13  O4  MOL A   1      13.417 -24.277  -8.002  1.00  0.00    -0.275 OA
ENDBRANCH   9  12
ENDBRANCH   8   9
BRANCH   8  14
ATOM     14  N7  MOL A   1      12.597 -21.271  -7.495  1.00  0.00    -0.346 N 
ATOM     15  C8  MOL A   1      11.253 -20.788  -7.482  1.00  0.00     0.258 C 
ATOM     16  O9  MOL A   1      10.690 -20.504  -6.391  1.00  0.00    -0.271 OA
BRANCH  15  17
ATOM     17 C10  MOL A   1      10.502 -20.599  -8.766  1.00  0.00     0.167 C 
BRANCH  17  18
ATOM     18 O11  MOL A   1      10.754 -19.304  -9.306  1.00  0.00    -0.480 OA
BRANCH  18  19
ATOM     19 C12  MOL A   1       9.874 -18.236  -9.114  1.00  0.00     0.166 A 
ATOM     20 C13  MOL A   1       8.713 -18.094  -9.908  1.00  0.00     0.012 A 
ATOM     21 C21  MOL A   1       7.815 -17.050  -9.628  1.00  0.00    -0.054 A 
ATOM     22 C22  MOL A   1       8.088 -16.135  -8.611  1.00  0.00    -0.058 A 
ATOM     23 C23  MOL A   1       9.259 -16.248  -7.862  1.00  0.00    -0.016 A 
ATOM     24 C24  MOL A   1      10.163 -17.297  -8.110  1.00  0.00     0.161 A 
BRANCH  20  25
ATOM     25 C14  MOL A   1       8.411 -19.034 -11.054  1.00  0.00     0.028 C 
BRANCH  25  26
ATOM     26 N15  MOL A   1       7.066 -19.624 -10.896  1.00  0.00    -0.287 NA
ATOM     27 C16  MOL A   1       6.917 -20.292  -9.592  1.00  0.00     0.064 C 
ATOM     28 C17  MOL A   1       6.788 -21.663 -10.226  1.00  0.00     0.272 C 
ATOM     29 F18  MOL A   1       5.537 -22.233 -10.065  1.00  0.00    -0.204 F 
ATOM     30 F19  MOL A   1       7.837 -22.517  -9.927  1.00  0.00    -0.204 F 
ATOM     31 C20  MOL A   1       6.957 -20.941 -11.548  1.00  0.00     0.064 C 
ENDBRANCH  25  26
ENDBRANCH  20  25
BRANCH  24  32
ATOM     32 O25  MOL A   1      11.352 -17.446  -7.381  1.00  0.00    -0.493 OA
ATOM     33 C26  MOL A   1      12.268 -16.390  -7.110  1.00  0.00     0.078 C 
ENDBRANCH  24  32
ENDBRANCH  18  19
ENDBRANCH  17  18
ENDBRANCH  15  17
ENDBRANCH   8  14
ENDBRANCH   1   8
TORSDOF 10
ENDMDL
MODEL 518
REMARK VINA RESULT:    -6.845      7.589     12.778
REMARK INTER + INTRA:         -11.895
REMARK INTER:                 -10.746
REMARK INTRA:                  -1.150
REMARK UNBOUND:                -1.048
REMARK  10 active torsions:
REMARK  status: ('A' for Active; 'I' for Inactive)
REMARK   1   A    between atoms:  C27_1   and   C6_8  
REMARK   2   A    between atoms:  C6_8    and   C5_9  
REMARK   3   A    between atoms:  C5_9    and   C3_12 
REMARK   4   A    between atoms:  C6_8    and   N7_14 
REMARK   5   A    between atoms:  C8_15   and  C10_17 
REMARK   6   A    between atoms: C10_17   and  O11_18 
REMARK   7   A    between atoms: O11_18   and  C12_19 
REMARK   8   A    between atoms: C13_20   and  C14_25 
REMARK   9   A    between atoms: C14_25   and  N15_26 
REMARK   10  A    between atoms: C24_24   and  O25_32 
ROOT
ATOM      1 C27  MOL A   1      10.992 -17.087  -7.814  1.00  0.00    -0.024 A 
ATOM      2 C28  MOL A   1       9.866 -16.299  -7.515  1.00  0.00    -0.057 A 
ATOM      3 C29  MOL A   1       8.670 -16.479  -8.218  1.00  0.00    -0.061 A 
ATOM      4 C30  MOL A   1       8.586 -17.445  -9.225  1.00  0.00    -0.048 A 
ATOM      5 C31  MOL A   1       9.698 -18.238  -9.530  1.00  0.00     0.018 A 
ATOM      6 Br32 MOL A   1       9.576 -19.574 -10.893  1.00  0.00    -0.051 Br
ATOM      7 C33  MOL A   1      10.897 -18.057  -8.833  1.00  0.00    -0.043 A 
ENDROOT
BRANCH   1   8
ATOM      8  C6  MOL A   1      12.303 -16.837  -7.100  1.00  0.00     0.063 C 
BRANCH   8   9
ATOM      9  C5  MOL A   1      12.327 -15.409  -6.527  1.00  0.00     0.051 C 
BRANCH   9  12
ATOM     10  C1  MOL A   1      15.117 -15.172  -3.819  1.00  0.00     0.006 C 
ATOM     11  N2  MOL A   1      13.853 -15.446  -4.488  1.00  0.00    -0.359 N 
ATOM     12  C3  MOL A   1      13.638 -15.104  -5.862  1.00  0.00     0.222 C 
ATOM     13  O4  MOL A   1      14.554 -14.546  -6.526  1.00  0.00    -0.275 OA
ENDBRANCH   9  12
ENDBRANCH   8   9
BRANCH   8  14
ATOM     14  N7  MOL A   1      13.429 -17.045  -8.016  1.00  0.00    -0.346 N 
ATOM     15  C8  MOL A   1      14.268 -18.200  -7.954  1.00  0.00     0.258 C 
ATOM     16  O9  MOL A   1      14.065 -19.087  -7.083  1.00  0.00    -0.271 OA
BRANCH  15  17
ATOM     17 C10  MOL A   1      15.391 -18.376  -8.933  1.00  0.00     0.167 C 
BRANCH  17  18
ATOM     18 O11  MOL A   1      16.618 -17.914  -8.373  1.00  0.00    -0.480 OA
BRANCH  18  19
ATOM     19 C12  MOL A   1      17.830 -18.571  -8.599  1.00  0.00     0.166 A 
ATOM     20 C13  MOL A   1      18.332 -19.516  -7.675  1.00  0.00     0.012 A 
ATOM     21 C21  MOL A   1      19.514 -20.211  -7.980  1.00  0.00    -0.054 A 
ATOM     22 C22  MOL A   1      20.211 -19.940  -9.157  1.00  0.00    -0.058 A 
ATOM     23 C23  MOL A   1      19.741 -18.971 -10.044  1.00  0.00    -0.016 A 
ATOM     24 C24  MOL A   1      18.548 -18.276  -9.769  1.00  0.00     0.161 A 
BRANCH  20  25
ATOM     25 C14  MOL A   1      17.632 -19.799  -6.364  1.00  0.00     0.028 C 
BRANCH  25  26
ATOM     26 N15  MOL A   1      18.293 -19.073  -5.260  1.00  0.00    -0.287 NA
ATOM     27 C16  MOL A   1      17.365 -18.148  -4.588  1.00  0.00     0.064 C 
ATOM     28 C17  MOL A   1      18.133 -16.926  -5.050  1.00  0.00     0.272 C 
ATOM     29 F18  MOL A   1      18.738 -16.228  -4.020  1.00  0.00    -0.204 F 
ATOM     30 F19  MOL A   1      17.427 -16.124  -5.932  1.00  0.00    -0.204 F 
ATOM     31 C20  MOL A   1      19.058 -17.909  -5.739  1.00  0.00     0.064 C 
ENDBRANCH  25  26
ENDBRANCH  20  25
BRANCH  24  32
ATOM     32 O25  MOL A   1      18.042 -17.294 -10.633  1.00  0.00    -0.493 OA
ATOM     33 C26  MOL A   1      18.836 -16.514 -11.521  1.00  0.00     0.078 C 
ENDBRANCH  24  32
ENDBRANCH  18  19
ENDBRANCH  17  18
ENDBRANCH  15  17
ENDBRANCH   8  14
ENDBRANCH   1   8
TORSDOF 10
ENDMDL
MODEL 519
REMARK VINA RESULT:    -6.844      5.933     10.802
REMARK INTER + INTRA:         -11.894
REMARK INTER:                 -11.150
REMARK INTRA:                  -0.743
REMARK UNBOUND:                -1.048
REMARK  10 active torsions:
REMARK  status: ('A' for Active; 'I' for Inactive)
REMARK   1   A    between atoms:  C27_1   and   C6_8  
REMARK   2   A    between atoms:  C6_8    and   C5_9  
REMARK   3   A    between atoms:  C5_9    and   C3_12 
REMARK   4   A    between atoms:  C6_8    and   N7_14 
REMARK   5   A    between atoms:  C8_15   and  C10_17 
REMARK   6   A    between atoms: C10_17   and  O11_18 
REMARK   7   A    between atoms: O11_18   and  C12_19 
REMARK   8   A    between atoms: C13_20   and  C14_25 
REMARK   9   A    between atoms: C14_25   and  N15_26 
REMARK   10  A    between atoms: C24_24   and  O25_32 
ROOT
ATOM      1 C27  MOL A   1       8.068 -17.332  -9.057  1.00  0.00    -0.024 A 
ATOM      2 C28  MOL A   1       7.275 -17.319  -7.894  1.00  0.00    -0.057 A 
ATOM      3 C29  MOL A   1       6.039 -16.664  -7.888  1.00  0.00    -0.061 A 
ATOM      4 C30  MOL A   1       5.582 -16.018  -9.040  1.00  0.00    -0.048 A 
ATOM      5 C31  MOL A   1       6.358 -16.027 -10.204  1.00  0.00     0.018 A 
ATOM      6 Br32 MOL A   1       5.722 -15.160 -11.787  1.00  0.00    -0.051 Br
ATOM      7 C33  MOL A   1       7.598 -16.675 -10.212  1.00  0.00    -0.043 A 
ENDROOT
BRANCH   1   8
ATOM      8  C6  MOL A   1       9.435 -17.979  -9.033  1.00  0.00     0.063 C 
BRANCH   8   9
ATOM      9  C5  MOL A   1       9.302 -19.483  -8.730  1.00  0.00     0.051 C 
BRANCH   9  12
ATOM     10  C1  MOL A   1       8.079 -22.251 -11.183  1.00  0.00     0.006 C 
ATOM     11  N2  MOL A   1       8.295 -21.460  -9.979  1.00  0.00    -0.359 N 
ATOM     12  C3  MOL A   1       9.108 -20.282  -9.986  1.00  0.00     0.222 C 
ATOM     13  O4  MOL A   1       9.666 -19.905 -11.053  1.00  0.00    -0.275 OA
ENDBRANCH   9  12
ENDBRANCH   8   9
BRANCH   8  14
ATOM     14  N7  MOL A   1      10.290 -17.325  -8.036  1.00  0.00    -0.346 N 
ATOM     15  C8  MOL A   1      11.717 -17.380  -8.092  1.00  0.00     0.258 C 
ATOM     16  O9  MOL A   1      12.293 -18.016  -9.014  1.00  0.00    -0.271 OA
BRANCH  15  17
ATOM     17 C10  MOL A   1      12.544 -16.672  -7.061  1.00  0.00     0.167 C 
BRANCH  17  18
ATOM     18 O11  MOL A   1      13.707 -16.104  -7.659  1.00  0.00    -0.480 OA
BRANCH  18  19
ATOM     19 C12  MOL A   1      14.949 -16.112  -7.018  1.00  0.00     0.166 A 
ATOM     20 C13  MOL A   1      16.085 -16.684  -7.635  1.00  0.00     0.012 A 
ATOM     21 C21  MOL A   1      17.330 -16.600  -6.990  1.00  0.00    -0.054 A 
ATOM     22 C22  MOL A   1      17.438 -16.003  -5.734  1.00  0.00    -0.058 A 
ATOM     23 C23  MOL A   1      16.306 -15.484  -5.105  1.00  0.00    -0.016 A 
ATOM     24 C24  MOL A   1      15.052 -15.539  -5.740  1.00  0.00     0.161 A 
BRANCH  20  25
ATOM     25 C14  MOL A   1      15.997 -17.386  -8.972  1.00  0.00     0.028 C 
BRANCH  25  26
ATOM     26 N15  MOL A   1      17.332 -17.855  -9.397  1.00  0.00    -0.287 NA
ATOM     27 C16  MOL A   1      17.842 -17.075 -10.538  1.00  0.00     0.064 C 
ATOM     28 C17  MOL A   1      17.788 -18.267 -11.472  1.00  0.00     0.272 C 
ATOM     29 F18  MOL A   1      19.034 -18.700 -11.892  1.00  0.00    -0.204 F 
ATOM     30 F19  MOL A   1      16.866 -18.132 -12.496  1.00  0.00    -0.204 F 
ATOM     31 C20  MOL A   1      17.253 -19.033 -10.278  1.00  0.00     0.064 C 
ENDBRANCH  25  26
ENDBRANCH  20  25
BRANCH  24  32
ATOM     32 O25  MOL A   1      13.890 -15.030  -5.142  1.00  0.00    -0.493 OA
ATOM     33 C26  MOL A   1      13.879 -14.060  -4.100  1.00  0.00     0.078 C 
ENDBRANCH  24  32
ENDBRANCH  18  19
ENDBRANCH  17  18
ENDBRANCH  15  17
ENDBRANCH   8  14
ENDBRANCH   1   8
TORSDOF 10
ENDMDL
MODEL 520
REMARK VINA RESULT:    -6.843     11.088     13.592
REMARK INTER + INTRA:         -11.891
REMARK INTER:                 -10.554
REMARK INTRA:                  -1.338
REMARK UNBOUND:                -1.048
REMARK  10 active torsions:
REMARK  status: ('A' for Active; 'I' for Inactive)
REMARK   1   A    between atoms:  C27_1   and   C6_8  
REMARK   2   A    between atoms:  C6_8    and   C5_9  
REMARK   3   A    between atoms:  C5_9    and   C3_12 
REMARK   4   A    between atoms:  C6_8    and   N7_14 
REMARK   5   A    between atoms:  C8_15   and  C10_17 
REMARK   6   A    between atoms: C10_17   and  O11_18 
REMARK   7   A    between atoms: O11_18   and  C12_19 
REMARK   8   A    between atoms: C13_20   and  C14_25 
REMARK   9   A    between atoms: C14_25   and  N15_26 
REMARK   10  A    between atoms: C24_24   and  O25_32 
ROOT
ATOM      1 C27  MOL A   1      14.818 -18.225  -1.151  1.00  0.00    -0.024 A 
ATOM      2 C28  MOL A   1      14.370 -18.022   0.167  1.00  0.00    -0.057 A 
ATOM      3 C29  MOL A   1      14.047 -16.736   0.614  1.00  0.00    -0.061 A 
ATOM      4 C30  MOL A   1      14.170 -15.643  -0.248  1.00  0.00    -0.048 A 
ATOM      5 C31  MOL A   1      14.611 -15.832  -1.562  1.00  0.00     0.018 A 
ATOM      6 Br32 MOL A   1      14.757 -14.337  -2.748  1.00  0.00    -0.051 Br
ATOM      7 C33  MOL A   1      14.939 -17.115  -2.011  1.00  0.00    -0.043 A 
ENDROOT
BRANCH   1   8
ATOM      8  C6  MOL A   1      15.234 -19.608  -1.604  1.00  0.00     0.063 C 
BRANCH   8   9
ATOM      9  C5  MOL A   1      15.853 -20.385  -0.428  1.00  0.00     0.051 C 
BRANCH   9  12
ATOM     10  C1  MOL A   1      14.631 -23.677   1.256  1.00  0.00     0.006 C 
ATOM     11  N2  MOL A   1      15.480 -22.593   0.785  1.00  0.00    -0.359 N 
ATOM     12  C3  MOL A   1      14.953 -21.493   0.034  1.00  0.00     0.222 C 
ATOM     13  O4  MOL A   1      13.723 -21.448  -0.242  1.00  0.00    -0.275 OA
ENDBRANCH   9  12
ENDBRANCH   8   9
BRANCH   8  14
ATOM     14  N7  MOL A   1      16.184 -19.513  -2.718  1.00  0.00    -0.346 N 
ATOM     15  C8  MOL A   1      15.831 -19.855  -4.060  1.00  0.00     0.258 C 
ATOM     16  O9  MOL A   1      14.671 -20.266  -4.328  1.00  0.00    -0.271 OA
BRANCH  15  17
ATOM     17 C10  MOL A   1      16.834 -19.715  -5.166  1.00  0.00     0.167 C 
BRANCH  17  18
ATOM     18 O11  MOL A   1      16.176 -19.490  -6.411  1.00  0.00    -0.480 OA
BRANCH  18  19
ATOM     19 C12  MOL A   1      16.871 -19.459  -7.623  1.00  0.00     0.166 A 
ATOM     20 C13  MOL A   1      17.433 -18.258  -8.113  1.00  0.00     0.012 A 
ATOM     21 C21  MOL A   1      18.191 -18.288  -9.295  1.00  0.00    -0.054 A 
ATOM     22 C22  MOL A   1      18.350 -19.479 -10.004  1.00  0.00    -0.058 A 
ATOM     23 C23  MOL A   1      17.753 -20.653  -9.545  1.00  0.00    -0.016 A 
ATOM     24 C24  MOL A   1      17.005 -20.651  -8.353  1.00  0.00     0.161 A 
BRANCH  20  25
ATOM     25 C14  MOL A   1      17.237 -16.938  -7.400  1.00  0.00     0.028 C 
BRANCH  25  26
ATOM     26 N15  MOL A   1      16.538 -15.977  -8.277  1.00  0.00    -0.287 NA
ATOM     27 C16  MOL A   1      16.512 -14.627  -7.688  1.00  0.00     0.064 C 
ATOM     28 C17  MOL A   1      15.006 -14.649  -7.520  1.00  0.00     0.272 C 
ATOM     29 F18  MOL A   1      14.343 -13.737  -8.322  1.00  0.00    -0.204 F 
ATOM     30 F19  MOL A   1      14.593 -14.638  -6.198  1.00  0.00    -0.204 F 
ATOM     31 C20  MOL A   1      15.075 -16.041  -8.117  1.00  0.00     0.064 C 
ENDBRANCH  25  26
ENDBRANCH  20  25
BRANCH  24  32
ATOM     32 O25  MOL A   1      16.388 -21.810  -7.858  1.00  0.00    -0.493 OA
ATOM     33 C26  MOL A   1      17.030 -22.772  -7.028  1.00  0.00     0.078 C 
ENDBRANCH  24  32
ENDBRANCH  18  19
ENDBRANCH  17  18
ENDBRANCH  15  17
ENDBRANCH   8  14
ENDBRANCH   1   8
TORSDOF 10
ENDMDL
MODEL 521
REMARK VINA RESULT:    -6.843      7.099     11.912
REMARK INTER + INTRA:         -11.891
REMARK INTER:                 -10.650
REMARK INTRA:                  -1.242
REMARK UNBOUND:                -1.048
REMARK  10 active torsions:
REMARK  status: ('A' for Active; 'I' for Inactive)
REMARK   1   A    between atoms:  C27_1   and   C6_8  
REMARK   2   A    between atoms:  C6_8    and   C5_9  
REMARK   3   A    between atoms:  C5_9    and   C3_12 
REMARK   4   A    between atoms:  C6_8    and   N7_14 
REMARK   5   A    between atoms:  C8_15   and  C10_17 
REMARK   6   A    between atoms: C10_17   and  O11_18 
REMARK   7   A    between atoms: O11_18   and  C12_19 
REMARK   8   A    between atoms: C13_20   and  C14_25 
REMARK   9   A    between atoms: C14_25   and  N15_26 
REMARK   10  A    between atoms: C24_24   and  O25_32 
ROOT
ATOM      1 C27  MOL A   1      13.508 -19.511  -7.206  1.00  0.00    -0.024 A 
ATOM      2 C28  MOL A   1      14.628 -19.574  -6.357  1.00  0.00    -0.057 A 
ATOM      3 C29  MOL A   1      15.143 -20.811  -5.955  1.00  0.00    -0.061 A 
ATOM      4 C30  MOL A   1      14.546 -21.995  -6.394  1.00  0.00    -0.048 A 
ATOM      5 C31  MOL A   1      13.433 -21.948  -7.242  1.00  0.00     0.018 A 
ATOM      6 Br32 MOL A   1      12.630 -23.570  -7.861  1.00  0.00    -0.051 Br
ATOM      7 C33  MOL A   1      12.912 -20.713  -7.642  1.00  0.00    -0.043 A 
ENDROOT
BRANCH   1   8
ATOM      8  C6  MOL A   1      12.913 -18.170  -7.578  1.00  0.00     0.063 C 
BRANCH   8   9
ATOM      9  C5  MOL A   1      12.593 -18.135  -9.083  1.00  0.00     0.051 C 
BRANCH   9  12
ATOM     10  C1  MOL A   1       8.809 -17.284  -8.720  1.00  0.00     0.006 C 
ATOM     11  N2  MOL A   1      10.247 -17.332  -8.499  1.00  0.00    -0.359 N 
ATOM     12  C3  MOL A   1      11.112 -18.114  -9.330  1.00  0.00     0.222 C 
ATOM     13  O4  MOL A   1      10.634 -18.791 -10.281  1.00  0.00    -0.275 OA
ENDBRANCH   9  12
ENDBRANCH   8   9
BRANCH   8  14
ATOM     14  N7  MOL A   1      13.837 -17.088  -7.221  1.00  0.00    -0.346 N 
ATOM     15  C8  MOL A   1      13.402 -15.883  -6.588  1.00  0.00     0.258 C 
ATOM     16  O9  MOL A   1      12.183 -15.709  -6.323  1.00  0.00    -0.271 OA
BRANCH  15  17
ATOM     17 C10  MOL A   1      14.392 -14.819  -6.221  1.00  0.00     0.167 C 
BRANCH  17  18
ATOM     18 O11  MOL A   1      15.669 -15.109  -6.786  1.00  0.00    -0.480 OA
BRANCH  18  19
ATOM     19 C12  MOL A   1      16.548 -16.024  -6.200  1.00  0.00     0.166 A 
ATOM     20 C13  MOL A   1      16.747 -16.053  -4.800  1.00  0.00     0.012 A 
ATOM     21 C21  MOL A   1      17.579 -17.040  -4.247  1.00  0.00    -0.054 A 
ATOM     22 C22  MOL A   1      18.241 -17.952  -5.070  1.00  0.00    -0.058 A 
ATOM     23 C23  MOL A   1      18.082 -17.889  -6.455  1.00  0.00    -0.016 A 
ATOM     24 C24  MOL A   1      17.238 -16.922  -7.030  1.00  0.00     0.161 A 
BRANCH  20  25
ATOM     25 C14  MOL A   1      16.089 -15.048  -3.881  1.00  0.00     0.028 C 
BRANCH  25  26
ATOM     26 N15  MOL A   1      15.558 -15.720  -2.678  1.00  0.00    -0.287 NA
ATOM     27 C16  MOL A   1      14.163 -15.329  -2.410  1.00  0.00     0.064 C 
ATOM     28 C17  MOL A   1      14.531 -14.625  -1.119  1.00  0.00     0.272 C 
ATOM     29 F18  MOL A   1      14.020 -15.235   0.012  1.00  0.00    -0.204 F 
ATOM     30 F19  MOL A   1      14.332 -13.254  -1.156  1.00  0.00    -0.204 F 
ATOM     31 C20  MOL A   1      15.956 -15.034  -1.436  1.00  0.00     0.064 C 
ENDBRANCH  25  26
ENDBRANCH  20  25
BRANCH  24  32
ATOM     32 O25  MOL A   1      17.052 -16.825  -8.417  1.00  0.00    -0.493 OA
ATOM     33 C26  MOL A   1      16.594 -17.889  -9.245  1.00  0.00     0.078 C 
ENDBRANCH  24  32
ENDBRANCH  18  19
ENDBRANCH  17  18
ENDBRANCH  15  17
ENDBRANCH   8  14
ENDBRANCH   1   8
TORSDOF 10
ENDMDL
MODEL 522
REMARK VINA RESULT:    -6.842      9.076     12.101
REMARK INTER + INTRA:         -11.891
REMARK INTER:                 -10.085
REMARK INTRA:                  -1.806
REMARK UNBOUND:                -1.048
REMARK  10 active torsions:
REMARK  status: ('A' for Active; 'I' for Inactive)
REMARK   1   A    between atoms:  C27_1   and   C6_8  
REMARK   2   A    between atoms:  C6_8    and   C5_9  
REMARK   3   A    between atoms:  C5_9    and   C3_12 
REMARK   4   A    between atoms:  C6_8    and   N7_14 
REMARK   5   A    between atoms:  C8_15   and  C10_17 
REMARK   6   A    between atoms: C10_17   and  O11_18 
REMARK   7   A    between atoms: O11_18   and  C12_19 
REMARK   8   A    between atoms: C13_20   and  C14_25 
REMARK   9   A    between atoms: C14_25   and  N15_26 
REMARK   10  A    between atoms: C24_24   and  O25_32 
ROOT
ATOM      1 C27  MOL A   1      15.744 -17.792  -3.227  1.00  0.00    -0.024 A 
ATOM      2 C28  MOL A   1      14.952 -16.750  -2.711  1.00  0.00    -0.057 A 
ATOM      3 C29  MOL A   1      15.411 -15.429  -2.746  1.00  0.00    -0.061 A 
ATOM      4 C30  MOL A   1      16.663 -15.136  -3.293  1.00  0.00    -0.048 A 
ATOM      5 C31  MOL A   1      17.459 -16.163  -3.813  1.00  0.00     0.018 A 
ATOM      6 Br32 MOL A   1      19.163 -15.758  -4.582  1.00  0.00    -0.051 Br
ATOM      7 C33  MOL A   1      17.006 -17.485  -3.775  1.00  0.00    -0.043 A 
ENDROOT
BRANCH   1   8
ATOM      8  C6  MOL A   1      15.271 -19.226  -3.120  1.00  0.00     0.063 C 
BRANCH   8   9
ATOM      9  C5  MOL A   1      15.888 -19.893  -1.877  1.00  0.00     0.051 C 
BRANCH   9  12
ATOM     10  C1  MOL A   1      13.427 -21.535   0.657  1.00  0.00     0.006 C 
ATOM     11  N2  MOL A   1      14.399 -21.349  -0.410  1.00  0.00    -0.359 N 
ATOM     12  C3  MOL A   1      14.876 -20.051  -0.779  1.00  0.00     0.222 C 
ATOM     13  O4  MOL A   1      14.451 -19.027  -0.178  1.00  0.00    -0.275 OA
ENDBRANCH   9  12
ENDBRANCH   8   9
BRANCH   8  14
ATOM     14  N7  MOL A   1      15.625 -19.970  -4.334  1.00  0.00    -0.346 N 
ATOM     15  C8  MOL A   1      14.726 -20.883  -4.966  1.00  0.00     0.258 C 
ATOM     16  O9  MOL A   1      13.582 -21.087  -4.480  1.00  0.00    -0.271 OA
BRANCH  15  17
ATOM     17 C10  MOL A   1      15.130 -21.598  -6.221  1.00  0.00     0.167 C 
BRANCH  17  18
ATOM     18 O11  MOL A   1      14.711 -20.864  -7.369  1.00  0.00    -0.480 OA
BRANCH  18  19
ATOM     19 C12  MOL A   1      13.391 -20.437  -7.536  1.00  0.00     0.166 A 
ATOM     20 C13  MOL A   1      13.036 -19.078  -7.370  1.00  0.00     0.012 A 
ATOM     21 C21  MOL A   1      11.713 -18.680  -7.625  1.00  0.00    -0.054 A 
ATOM     22 C22  MOL A   1      10.749 -19.619  -7.990  1.00  0.00    -0.058 A 
ATOM     23 C23  MOL A   1      11.090 -20.967  -8.103  1.00  0.00    -0.016 A 
ATOM     24 C24  MOL A   1      12.413 -21.387  -7.873  1.00  0.00     0.161 A 
BRANCH  20  25
ATOM     25 C14  MOL A   1      14.042 -18.041  -6.924  1.00  0.00     0.028 C 
BRANCH  25  26
ATOM     26 N15  MOL A   1      13.587 -16.686  -7.300  1.00  0.00    -0.287 NA
ATOM     27 C16  MOL A   1      14.558 -16.013  -8.180  1.00  0.00     0.064 C 
ATOM     28 C17  MOL A   1      14.885 -14.962  -7.137  1.00  0.00     0.272 C 
ATOM     29 F18  MOL A   1      14.481 -13.686  -7.489  1.00  0.00    -0.204 F 
ATOM     30 F19  MOL A   1      16.186 -15.029  -6.667  1.00  0.00    -0.204 F 
ATOM     31 C20  MOL A   1      13.888 -15.690  -6.257  1.00  0.00     0.064 C 
ENDBRANCH  25  26
ENDBRANCH  20  25
BRANCH  24  32
ATOM     32 O25  MOL A   1      12.797 -22.732  -7.976  1.00  0.00    -0.493 OA
ATOM     33 C26  MOL A   1      12.316 -23.774  -7.134  1.00  0.00     0.078 C 
ENDBRANCH  24  32
ENDBRANCH  18  19
ENDBRANCH  17  18
ENDBRANCH  15  17
ENDBRANCH   8  14
ENDBRANCH   1   8
TORSDOF 10
ENDMDL
MODEL 523
REMARK VINA RESULT:    -6.841      6.780      9.855
REMARK INTER + INTRA:         -11.888
REMARK INTER:                 -10.135
REMARK INTRA:                  -1.754
REMARK UNBOUND:                -1.048
REMARK  10 active torsions:
REMARK  status: ('A' for Active; 'I' for Inactive)
REMARK   1   A    between atoms:  C27_1   and   C6_8  
REMARK   2   A    between atoms:  C6_8    and   C5_9  
REMARK   3   A    between atoms:  C5_9    and   C3_12 
REMARK   4   A    between atoms:  C6_8    and   N7_14 
REMARK   5   A    between atoms:  C8_15   and  C10_17 
REMARK   6   A    between atoms: C10_17   and  O11_18 
REMARK   7   A    between atoms: O11_18   and  C12_19 
REMARK   8   A    between atoms: C13_20   and  C14_25 
REMARK   9   A    between atoms: C14_25   and  N15_26 
REMARK   10  A    between atoms: C24_24   and  O25_32 
ROOT
ATOM      1 C27  MOL A   1      15.034 -21.835  -7.744  1.00  0.00    -0.024 A 
ATOM      2 C28  MOL A   1      16.162 -22.213  -6.994  1.00  0.00    -0.057 A 
ATOM      3 C29  MOL A   1      17.370 -21.521  -7.135  1.00  0.00    -0.061 A 
ATOM      4 C30  MOL A   1      17.463 -20.448  -8.026  1.00  0.00    -0.048 A 
ATOM      5 C31  MOL A   1      16.347 -20.059  -8.775  1.00  0.00     0.018 A 
ATOM      6 Br32 MOL A   1      16.470 -18.576  -9.977  1.00  0.00    -0.051 Br
ATOM      7 C33  MOL A   1      15.140 -20.752  -8.640  1.00  0.00    -0.043 A 
ENDROOT
BRANCH   1   8
ATOM      8  C6  MOL A   1      13.753 -22.633  -7.638  1.00  0.00     0.063 C 
BRANCH   8   9
ATOM      9  C5  MOL A   1      13.726 -23.733  -8.715  1.00  0.00     0.051 C 
BRANCH   9  12
ATOM     10  C1  MOL A   1      10.502 -25.822  -9.358  1.00  0.00     0.006 C 
ATOM     11  N2  MOL A   1      11.614 -24.898  -9.531  1.00  0.00    -0.359 N 
ATOM     12  C3  MOL A   1      12.586 -24.685  -8.502  1.00  0.00     0.222 C 
ATOM     13  O4  MOL A   1      12.492 -25.302  -7.406  1.00  0.00    -0.275 OA
ENDBRANCH   9  12
ENDBRANCH   8   9
BRANCH   8  14
ATOM     14  N7  MOL A   1      12.590 -21.749  -7.774  1.00  0.00    -0.346 N 
ATOM     15  C8  MOL A   1      12.083 -20.972  -6.688  1.00  0.00     0.258 C 
ATOM     16  O9  MOL A   1      12.628 -21.035  -5.554  1.00  0.00    -0.271 OA
BRANCH  15  17
ATOM     17 C10  MOL A   1      10.907 -20.064  -6.888  1.00  0.00     0.167 C 
BRANCH  17  18
ATOM     18 O11  MOL A   1      11.123 -19.208  -8.008  1.00  0.00    -0.480 OA
BRANCH  18  19
ATOM     19 C12  MOL A   1      10.178 -18.260  -8.409  1.00  0.00     0.166 A 
ATOM     20 C13  MOL A   1       9.321 -18.501  -9.508  1.00  0.00     0.012 A 
ATOM     21 C21  MOL A   1       8.333 -17.555  -9.827  1.00  0.00    -0.054 A 
ATOM     22 C22  MOL A   1       8.228 -16.369  -9.101  1.00  0.00    -0.058 A 
ATOM     23 C23  MOL A   1       9.107 -16.110  -8.049  1.00  0.00    -0.016 A 
ATOM     24 C24  MOL A   1      10.092 -17.052  -7.698  1.00  0.00     0.161 A 
BRANCH  20  25
ATOM     25 C14  MOL A   1       9.440 -19.751 -10.352  1.00  0.00     0.028 C 
BRANCH  25  26
ATOM     26 N15  MOL A   1       8.602 -20.832  -9.793  1.00  0.00    -0.287 NA
ATOM     27 C16  MOL A   1       9.399 -22.032  -9.486  1.00  0.00     0.064 C 
ATOM     28 C17  MOL A   1       8.701 -22.857 -10.548  1.00  0.00     0.272 C 
ATOM     29 F18  MOL A   1       7.930 -23.886 -10.036  1.00  0.00    -0.204 F 
ATOM     30 F19  MOL A   1       9.531 -23.243 -11.589  1.00  0.00    -0.204 F 
ATOM     31 C20  MOL A   1       7.910 -21.598 -10.844  1.00  0.00     0.064 C 
ENDBRANCH  25  26
ENDBRANCH  20  25
BRANCH  24  32
ATOM     32 O25  MOL A   1      10.995 -16.831  -6.648  1.00  0.00    -0.493 OA
ATOM     33 C26  MOL A   1      12.046 -15.870  -6.679  1.00  0.00     0.078 C 
ENDBRANCH  24  32
ENDBRANCH  18  19
ENDBRANCH  17  18
ENDBRANCH  15  17
ENDBRANCH   8  14
ENDBRANCH   1   8
TORSDOF 10
ENDMDL
MODEL 524
REMARK VINA RESULT:    -6.839      5.979      9.168
REMARK INTER + INTRA:         -11.885
REMARK INTER:                 -10.475
REMARK INTRA:                  -1.410
REMARK UNBOUND:                -1.048
REMARK  10 active torsions:
REMARK  status: ('A' for Active; 'I' for Inactive)
REMARK   1   A    between atoms:  C27_1   and   C6_8  
REMARK   2   A    between atoms:  C6_8    and   C5_9  
REMARK   3   A    between atoms:  C5_9    and   C3_12 
REMARK   4   A    between atoms:  C6_8    and   N7_14 
REMARK   5   A    between atoms:  C8_15   and  C10_17 
REMARK   6   A    between atoms: C10_17   and  O11_18 
REMARK   7   A    between atoms: O11_18   and  C12_19 
REMARK   8   A    between atoms: C13_20   and  C14_25 
REMARK   9   A    between atoms: C14_25   and  N15_26 
REMARK   10  A    between atoms: C24_24   and  O25_32 
ROOT
ATOM      1 C27  MOL A   1      14.485 -17.398  -7.364  1.00  0.00    -0.024 A 
ATOM      2 C28  MOL A   1      14.322 -16.337  -8.274  1.00  0.00    -0.057 A 
ATOM      3 C29  MOL A   1      14.221 -15.020  -7.814  1.00  0.00    -0.061 A 
ATOM      4 C30  MOL A   1      14.282 -14.749  -6.445  1.00  0.00    -0.048 A 
ATOM      5 C31  MOL A   1      14.447 -15.794  -5.529  1.00  0.00     0.018 A 
ATOM      6 Br32 MOL A   1      14.552 -15.419  -3.656  1.00  0.00    -0.051 Br
ATOM      7 C33  MOL A   1      14.543 -17.113  -5.985  1.00  0.00    -0.043 A 
ENDROOT
BRANCH   1   8
ATOM      8  C6  MOL A   1      14.520 -18.826  -7.864  1.00  0.00     0.063 C 
BRANCH   8   9
ATOM      9  C5  MOL A   1      15.358 -18.913  -9.153  1.00  0.00     0.051 C 
BRANCH   9  12
ATOM     10  C1  MOL A   1      18.233 -20.840  -7.366  1.00  0.00     0.006 C 
ATOM     11  N2  MOL A   1      16.972 -20.162  -7.629  1.00  0.00    -0.359 N 
ATOM     12  C3  MOL A   1      16.672 -19.597  -8.910  1.00  0.00     0.222 C 
ATOM     13  O4  MOL A   1      17.513 -19.672  -9.847  1.00  0.00    -0.275 OA
ENDBRANCH   9  12
ENDBRANCH   8   9
BRANCH   8  14
ATOM     14  N7  MOL A   1      13.158 -19.315  -8.100  1.00  0.00    -0.346 N 
ATOM     15  C8  MOL A   1      12.593 -20.403  -7.365  1.00  0.00     0.258 C 
ATOM     16  O9  MOL A   1      13.270 -20.991  -6.480  1.00  0.00    -0.271 OA
BRANCH  15  17
ATOM     17 C10  MOL A   1      11.185 -20.846  -7.628  1.00  0.00     0.167 C 
BRANCH  17  18
ATOM     18 O11  MOL A   1      11.034 -21.245  -8.989  1.00  0.00    -0.480 OA
BRANCH  18  19
ATOM     19 C12  MOL A   1       9.795 -21.613  -9.520  1.00  0.00     0.166 A 
ATOM     20 C13  MOL A   1       8.926 -20.650 -10.084  1.00  0.00     0.012 A 
ATOM     21 C21  MOL A   1       7.726 -21.074 -10.678  1.00  0.00    -0.054 A 
ATOM     22 C22  MOL A   1       7.370 -22.423 -10.670  1.00  0.00    -0.058 A 
ATOM     23 C23  MOL A   1       8.205 -23.365 -10.068  1.00  0.00    -0.016 A 
ATOM     24 C24  MOL A   1       9.422 -22.966  -9.485  1.00  0.00     0.161 A 
BRANCH  20  25
ATOM     25 C14  MOL A   1       9.254 -19.173 -10.064  1.00  0.00     0.028 C 
BRANCH  25  26
ATOM     26 N15  MOL A   1       8.835 -18.570  -8.782  1.00  0.00    -0.287 NA
ATOM     27 C16  MOL A   1       7.505 -17.946  -8.886  1.00  0.00     0.064 C 
ATOM     28 C17  MOL A   1       8.061 -16.552  -8.671  1.00  0.00     0.272 C 
ATOM     29 F18  MOL A   1       7.658 -15.970  -7.482  1.00  0.00    -0.204 F 
ATOM     30 F19  MOL A   1       7.931 -15.724  -9.774  1.00  0.00    -0.204 F 
ATOM     31 C20  MOL A   1       9.415 -17.230  -8.583  1.00  0.00     0.064 C 
ENDBRANCH  25  26
ENDBRANCH  20  25
BRANCH  24  32
ATOM     32 O25  MOL A   1      10.288 -23.881  -8.870  1.00  0.00    -0.493 OA
ATOM     33 C26  MOL A   1      10.339 -25.271  -9.173  1.00  0.00     0.078 C 
ENDBRANCH  24  32
ENDBRANCH  18  19
ENDBRANCH  17  18
ENDBRANCH  15  17
ENDBRANCH   8  14
ENDBRANCH   1   8
TORSDOF 10
ENDMDL
MODEL 525
REMARK VINA RESULT:    -6.838      6.823     10.300
REMARK INTER + INTRA:         -11.884
REMARK INTER:                 -10.748
REMARK INTRA:                  -1.136
REMARK UNBOUND:                -1.048
REMARK  10 active torsions:
REMARK  status: ('A' for Active; 'I' for Inactive)
REMARK   1   A    between atoms:  C27_1   and   C6_8  
REMARK   2   A    between atoms:  C6_8    and   C5_9  
REMARK   3   A    between atoms:  C5_9    and   C3_12 
REMARK   4   A    between atoms:  C6_8    and   N7_14 
REMARK   5   A    between atoms:  C8_15   and  C10_17 
REMARK   6   A    between atoms: C10_17   and  O11_18 
REMARK   7   A    between atoms: O11_18   and  C12_19 
REMARK   8   A    between atoms: C13_20   and  C14_25 
REMARK   9   A    between atoms: C14_25   and  N15_26 
REMARK   10  A    between atoms: C24_24   and  O25_32 
ROOT
ATOM      1 C27  MOL A   1      16.454 -17.815  -6.417  1.00  0.00    -0.024 A 
ATOM      2 C28  MOL A   1      15.377 -17.803  -5.512  1.00  0.00    -0.057 A 
ATOM      3 C29  MOL A   1      15.463 -17.075  -4.320  1.00  0.00    -0.061 A 
ATOM      4 C30  MOL A   1      16.622 -16.355  -4.020  1.00  0.00    -0.048 A 
ATOM      5 C31  MOL A   1      17.699 -16.357  -4.913  1.00  0.00     0.018 A 
ATOM      6 Br32 MOL A   1      19.278 -15.353  -4.512  1.00  0.00    -0.051 Br
ATOM      7 C33  MOL A   1      17.619 -17.087  -6.103  1.00  0.00    -0.043 A 
ENDROOT
BRANCH   1   8
ATOM      8  C6  MOL A   1      16.381 -18.663  -7.669  1.00  0.00     0.063 C 
BRANCH   8   9
ATOM      9  C5  MOL A   1      17.655 -18.471  -8.511  1.00  0.00     0.051 C 
BRANCH   9  12
ATOM     10  C1  MOL A   1      20.316 -21.193  -7.683  1.00  0.00     0.006 C 
ATOM     11  N2  MOL A   1      19.521 -19.974  -7.646  1.00  0.00    -0.359 N 
ATOM     12  C3  MOL A   1      18.464 -19.734  -8.581  1.00  0.00     0.222 C 
ATOM     13  O4  MOL A   1      18.202 -20.587  -9.473  1.00  0.00    -0.275 OA
ENDBRANCH   9  12
ENDBRANCH   8   9
BRANCH   8  14
ATOM     14  N7  MOL A   1      15.189 -18.314  -8.450  1.00  0.00    -0.346 N 
ATOM     15  C8  MOL A   1      14.067 -19.191  -8.575  1.00  0.00     0.258 C 
ATOM     16  O9  MOL A   1      14.076 -20.318  -8.012  1.00  0.00    -0.271 OA
BRANCH  15  17
ATOM     17 C10  MOL A   1      12.863 -18.774  -9.364  1.00  0.00     0.167 C 
BRANCH  17  18
ATOM     18 O11  MOL A   1      11.667 -19.089  -8.654  1.00  0.00    -0.480 OA
BRANCH  18  19
ATOM     19 C12  MOL A   1      10.540 -18.264  -8.697  1.00  0.00     0.166 A 
ATOM     20 C13  MOL A   1       9.504 -18.489  -9.632  1.00  0.00     0.012 A 
ATOM     21 C21  MOL A   1       8.354 -17.684  -9.587  1.00  0.00    -0.054 A 
ATOM     22 C22  MOL A   1       8.253 -16.643  -8.664  1.00  0.00    -0.058 A 
ATOM     23 C23  MOL A   1       9.298 -16.391  -7.775  1.00  0.00    -0.016 A 
ATOM     24 C24  MOL A   1      10.452 -17.197  -7.788  1.00  0.00     0.161 A 
BRANCH  20  25
ATOM     25 C14  MOL A   1       9.601 -19.573 -10.682  1.00  0.00     0.028 C 
BRANCH  25  26
ATOM     26 N15  MOL A   1       9.501 -20.908 -10.057  1.00  0.00    -0.287 NA
ATOM     27 C16  MOL A   1       9.218 -21.954 -11.054  1.00  0.00     0.064 C 
ATOM     28 C17  MOL A   1       7.848 -22.240 -10.473  1.00  0.00     0.272 C 
ATOM     29 F18  MOL A   1       7.738 -23.497  -9.903  1.00  0.00    -0.204 F 
ATOM     30 F19  MOL A   1       6.803 -21.916 -11.322  1.00  0.00    -0.204 F 
ATOM     31 C20  MOL A   1       8.171 -21.149  -9.472  1.00  0.00     0.064 C 
ENDBRANCH  25  26
ENDBRANCH  20  25
BRANCH  24  32
ATOM     32 O25  MOL A   1      11.525 -16.976  -6.912  1.00  0.00    -0.493 OA
ATOM     33 C26  MOL A   1      12.046 -15.692  -6.584  1.00  0.00     0.078 C 
ENDBRANCH  24  32
ENDBRANCH  18  19
ENDBRANCH  17  18
ENDBRANCH  15  17
ENDBRANCH   8  14
ENDBRANCH   1   8
TORSDOF 10
ENDMDL
MODEL 526
REMARK VINA RESULT:    -6.836      6.031     10.123
REMARK INTER + INTRA:         -11.880
REMARK INTER:                 -11.024
REMARK INTRA:                  -0.856
REMARK UNBOUND:                -1.048
REMARK  10 active torsions:
REMARK  status: ('A' for Active; 'I' for Inactive)
REMARK   1   A    between atoms:  C27_1   and   C6_8  
REMARK   2   A    between atoms:  C6_8    and   C5_9  
REMARK   3   A    between atoms:  C5_9    and   C3_12 
REMARK   4   A    between atoms:  C6_8    and   N7_14 
REMARK   5   A    between atoms:  C8_15   and  C10_17 
REMARK   6   A    between atoms: C10_17   and  O11_18 
REMARK   7   A    between atoms: O11_18   and  C12_19 
REMARK   8   A    between atoms: C13_20   and  C14_25 
REMARK   9   A    between atoms: C14_25   and  N15_26 
REMARK   10  A    between atoms: C24_24   and  O25_32 
ROOT
ATOM      1 C27  MOL A   1      17.598 -17.347  -8.846  1.00  0.00    -0.024 A 
ATOM      2 C28  MOL A   1      17.908 -16.776 -10.094  1.00  0.00    -0.057 A 
ATOM      3 C29  MOL A   1      18.810 -17.407 -10.957  1.00  0.00    -0.061 A 
ATOM      4 C30  MOL A   1      19.413 -18.611 -10.583  1.00  0.00    -0.048 A 
ATOM      5 C31  MOL A   1      19.111 -19.192  -9.346  1.00  0.00     0.018 A 
ATOM      6 Br32 MOL A   1      19.919 -20.852  -8.844  1.00  0.00    -0.051 Br
ATOM      7 C33  MOL A   1      18.213 -18.561  -8.479  1.00  0.00    -0.043 A 
ENDROOT
BRANCH   1   8
ATOM      8  C6  MOL A   1      16.677 -16.622  -7.889  1.00  0.00     0.063 C 
BRANCH   8   9
ATOM      9  C5  MOL A   1      17.183 -16.786  -6.444  1.00  0.00     0.051 C 
BRANCH   9  12
ATOM     10  C1  MOL A   1      14.637 -14.963  -4.127  1.00  0.00     0.006 C 
ATOM     11  N2  MOL A   1      15.704 -15.221  -5.083  1.00  0.00    -0.359 N 
ATOM     12  C3  MOL A   1      16.085 -16.552  -5.447  1.00  0.00     0.222 C 
ATOM     13  O4  MOL A   1      15.496 -17.542  -4.932  1.00  0.00    -0.275 OA
ENDBRANCH   9  12
ENDBRANCH   8   9
BRANCH   8  14
ATOM     14  N7  MOL A   1      15.308 -17.131  -8.018  1.00  0.00    -0.346 N 
ATOM     15  C8  MOL A   1      14.182 -16.271  -8.207  1.00  0.00     0.258 C 
ATOM     16  O9  MOL A   1      14.338 -15.022  -8.260  1.00  0.00    -0.271 OA
BRANCH  15  17
ATOM     17 C10  MOL A   1      12.806 -16.846  -8.359  1.00  0.00     0.167 C 
BRANCH  17  18
ATOM     18 O11  MOL A   1      12.558 -17.822  -7.350  1.00  0.00    -0.480 OA
BRANCH  18  19
ATOM     19 C12  MOL A   1      12.074 -19.096  -7.654  1.00  0.00     0.166 A 
ATOM     20 C13  MOL A   1      10.989 -19.273  -8.543  1.00  0.00     0.012 A 
ATOM     21 C21  MOL A   1      10.586 -20.576  -8.882  1.00  0.00    -0.054 A 
ATOM     22 C22  MOL A   1      11.215 -21.682  -8.312  1.00  0.00    -0.058 A 
ATOM     23 C23  MOL A   1      12.252 -21.505  -7.395  1.00  0.00    -0.016 A 
ATOM     24 C24  MOL A   1      12.686 -20.210  -7.056  1.00  0.00     0.161 A 
BRANCH  20  25
ATOM     25 C14  MOL A   1      10.248 -18.097  -9.140  1.00  0.00     0.028 C 
BRANCH  25  26
ATOM     26 N15  MOL A   1       8.978 -17.869  -8.422  1.00  0.00    -0.287 NA
ATOM     27 C16  MOL A   1       7.814 -18.084  -9.298  1.00  0.00     0.064 C 
ATOM     28 C17  MOL A   1       7.412 -16.623  -9.243  1.00  0.00     0.272 C 
ATOM     29 F18  MOL A   1       6.212 -16.401  -8.589  1.00  0.00    -0.204 F 
ATOM     30 F19  MOL A   1       7.517 -15.970 -10.460  1.00  0.00    -0.204 F 
ATOM     31 C20  MOL A   1       8.627 -16.440  -8.355  1.00  0.00     0.064 C 
ENDBRANCH  25  26
ENDBRANCH  20  25
BRANCH  24  32
ATOM     32 O25  MOL A   1      13.724 -19.988  -6.139  1.00  0.00    -0.493 OA
ATOM     33 C26  MOL A   1      14.116 -20.911  -5.128  1.00  0.00     0.078 C 
ENDBRANCH  24  32
ENDBRANCH  18  19
ENDBRANCH  17  18
ENDBRANCH  15  17
ENDBRANCH   8  14
ENDBRANCH   1   8
TORSDOF 10
ENDMDL
MODEL 527
REMARK VINA RESULT:    -6.833      6.517      9.997
REMARK INTER + INTRA:         -11.876
REMARK INTER:                 -10.646
REMARK INTRA:                  -1.230
REMARK UNBOUND:                -1.048
REMARK  10 active torsions:
REMARK  status: ('A' for Active; 'I' for Inactive)
REMARK   1   A    between atoms:  C27_1   and   C6_8  
REMARK   2   A    between atoms:  C6_8    and   C5_9  
REMARK   3   A    between atoms:  C5_9    and   C3_12 
REMARK   4   A    between atoms:  C6_8    and   N7_14 
REMARK   5   A    between atoms:  C8_15   and  C10_17 
REMARK   6   A    between atoms: C10_17   and  O11_18 
REMARK   7   A    between atoms: O11_18   and  C12_19 
REMARK   8   A    between atoms: C13_20   and  C14_25 
REMARK   9   A    between atoms: C14_25   and  N15_26 
REMARK   10  A    between atoms: C24_24   and  O25_32 
ROOT
ATOM      1 C27  MOL A   1      15.887 -18.277  -5.451  1.00  0.00    -0.024 A 
ATOM      2 C28  MOL A   1      16.915 -18.749  -4.615  1.00  0.00    -0.057 A 
ATOM      3 C29  MOL A   1      17.169 -18.129  -3.387  1.00  0.00    -0.061 A 
ATOM      4 C30  MOL A   1      16.401 -17.034  -2.982  1.00  0.00    -0.048 A 
ATOM      5 C31  MOL A   1      15.373 -16.556  -3.803  1.00  0.00     0.018 A 
ATOM      6 Br32 MOL A   1      14.309 -15.070  -3.239  1.00  0.00    -0.051 Br
ATOM      7 C33  MOL A   1      15.120 -17.170  -5.034  1.00  0.00    -0.043 A 
ENDROOT
BRANCH   1   8
ATOM      8  C6  MOL A   1      15.666 -18.906  -6.810  1.00  0.00     0.063 C 
BRANCH   8   9
ATOM      9  C5  MOL A   1      16.530 -18.195  -7.867  1.00  0.00     0.051 C 
BRANCH   9  12
ATOM     10  C1  MOL A   1      18.563 -21.427  -8.640  1.00  0.00     0.006 C 
ATOM     11  N2  MOL A   1      17.581 -20.505  -8.088  1.00  0.00    -0.359 N 
ATOM     12  C3  MOL A   1      17.563 -19.119  -8.446  1.00  0.00     0.222 C 
ATOM     13  O4  MOL A   1      18.417 -18.663  -9.255  1.00  0.00    -0.275 OA
ENDBRANCH   9  12
ENDBRANCH   8   9
BRANCH   8  14
ATOM     14  N7  MOL A   1      14.247 -18.843  -7.175  1.00  0.00    -0.346 N 
ATOM     15  C8  MOL A   1      13.329 -19.896  -6.877  1.00  0.00     0.258 C 
ATOM     16  O9  MOL A   1      13.725 -20.937  -6.288  1.00  0.00    -0.271 OA
BRANCH  15  17
ATOM     17 C10  MOL A   1      11.882 -19.769  -7.250  1.00  0.00     0.167 C 
BRANCH  17  18
ATOM     18 O11  MOL A   1      11.734 -18.939  -8.399  1.00  0.00    -0.480 OA
BRANCH  18  19
ATOM     19 C12  MOL A   1      10.595 -18.156  -8.607  1.00  0.00     0.166 A 
ATOM     20 C13  MOL A   1       9.677 -18.461  -9.638  1.00  0.00     0.012 A 
ATOM     21 C21  MOL A   1       8.505 -17.696  -9.760  1.00  0.00    -0.054 A 
ATOM     22 C22  MOL A   1       8.272 -16.617  -8.907  1.00  0.00    -0.058 A 
ATOM     23 C23  MOL A   1       9.204 -16.287  -7.923  1.00  0.00    -0.016 A 
ATOM     24 C24  MOL A   1      10.375 -17.051  -7.768  1.00  0.00     0.161 A 
BRANCH  20  25
ATOM     25 C14  MOL A   1       9.921 -19.590 -10.615  1.00  0.00     0.028 C 
BRANCH  25  26
ATOM     26 N15  MOL A   1       9.575 -20.888 -10.001  1.00  0.00    -0.287 NA
ATOM     27 C16  MOL A   1       9.312 -21.917 -11.021  1.00  0.00     0.064 C 
ATOM     28 C17  MOL A   1       7.849 -22.026 -10.639  1.00  0.00     0.272 C 
ATOM     29 F18  MOL A   1       7.511 -23.247 -10.081  1.00  0.00    -0.204 F 
ATOM     30 F19  MOL A   1       6.980 -21.602 -11.631  1.00  0.00    -0.204 F 
ATOM     31 C20  MOL A   1       8.157 -20.957  -9.609  1.00  0.00     0.064 C 
ENDBRANCH  25  26
ENDBRANCH  20  25
BRANCH  24  32
ATOM     32 O25  MOL A   1      11.337 -16.752  -6.793  1.00  0.00    -0.493 OA
ATOM     33 C26  MOL A   1      12.355 -15.768  -6.940  1.00  0.00     0.078 C 
ENDBRANCH  24  32
ENDBRANCH  18  19
ENDBRANCH  17  18
ENDBRANCH  15  17
ENDBRANCH   8  14
ENDBRANCH   1   8
TORSDOF 10
ENDMDL
MODEL 528
REMARK VINA RESULT:    -6.833      5.463      8.542
REMARK INTER + INTRA:         -11.875
REMARK INTER:                 -11.037
REMARK INTRA:                  -0.838
REMARK UNBOUND:                -1.048
REMARK  10 active torsions:
REMARK  status: ('A' for Active; 'I' for Inactive)
REMARK   1   A    between atoms:  C27_1   and   C6_8  
REMARK   2   A    between atoms:  C6_8    and   C5_9  
REMARK   3   A    between atoms:  C5_9    and   C3_12 
REMARK   4   A    between atoms:  C6_8    and   N7_14 
REMARK   5   A    between atoms:  C8_15   and  C10_17 
REMARK   6   A    between atoms: C10_17   and  O11_18 
REMARK   7   A    between atoms: O11_18   and  C12_19 
REMARK   8   A    between atoms: C13_20   and  C14_25 
REMARK   9   A    between atoms: C14_25   and  N15_26 
REMARK   10  A    between atoms: C24_24   and  O25_32 
ROOT
ATOM      1 C27  MOL A   1      15.341 -19.797  -8.686  1.00  0.00    -0.024 A 
ATOM      2 C28  MOL A   1      15.223 -21.192  -8.549  1.00  0.00    -0.057 A 
ATOM      3 C29  MOL A   1      16.278 -22.031  -8.921  1.00  0.00    -0.061 A 
ATOM      4 C30  MOL A   1      17.459 -21.488  -9.433  1.00  0.00    -0.048 A 
ATOM      5 C31  MOL A   1      17.591 -20.101  -9.572  1.00  0.00     0.018 A 
ATOM      6 Br32 MOL A   1      19.217 -19.357 -10.252  1.00  0.00    -0.051 Br
ATOM      7 C33  MOL A   1      16.536 -19.259  -9.206  1.00  0.00    -0.043 A 
ENDROOT
BRANCH   1   8
ATOM      8  C6  MOL A   1      14.168 -18.901  -8.350  1.00  0.00     0.063 C 
BRANCH   8   9
ATOM      9  C5  MOL A   1      14.448 -18.133  -7.046  1.00  0.00     0.051 C 
BRANCH   9  12
ATOM     10  C1  MOL A   1      13.654 -14.437  -6.108  1.00  0.00     0.006 C 
ATOM     11  N2  MOL A   1      13.985 -15.851  -6.013  1.00  0.00    -0.359 N 
ATOM     12  C3  MOL A   1      14.096 -16.680  -7.176  1.00  0.00     0.222 C 
ATOM     13  O4  MOL A   1      13.899 -16.190  -8.322  1.00  0.00    -0.275 OA
ENDBRANCH   9  12
ENDBRANCH   8   9
BRANCH   8  14
ATOM     14  N7  MOL A   1      12.941 -19.695  -8.228  1.00  0.00    -0.346 N 
ATOM     15  C8  MOL A   1      11.719 -19.325  -8.871  1.00  0.00     0.258 C 
ATOM     16  O9  MOL A   1      11.659 -18.277  -9.567  1.00  0.00    -0.271 OA
BRANCH  15  17
ATOM     17 C10  MOL A   1      10.499 -20.187  -8.735  1.00  0.00     0.167 C 
BRANCH  17  18
ATOM     18 O11  MOL A   1       9.982 -20.526 -10.019  1.00  0.00    -0.480 OA
BRANCH  18  19
ATOM     19 C12  MOL A   1       8.699 -21.053 -10.186  1.00  0.00     0.166 A 
ATOM     20 C13  MOL A   1       7.562 -20.214 -10.217  1.00  0.00     0.012 A 
ATOM     21 C21  MOL A   1       6.300 -20.779 -10.466  1.00  0.00    -0.054 A 
ATOM     22 C22  MOL A   1       6.161 -22.156 -10.633  1.00  0.00    -0.058 A 
ATOM     23 C23  MOL A   1       7.278 -22.989 -10.552  1.00  0.00    -0.016 A 
ATOM     24 C24  MOL A   1       8.555 -22.444 -10.323  1.00  0.00     0.161 A 
BRANCH  20  25
ATOM     25 C14  MOL A   1       7.666 -18.722  -9.988  1.00  0.00     0.028 C 
BRANCH  25  26
ATOM     26 N15  MOL A   1       7.354 -18.394  -8.582  1.00  0.00    -0.287 NA
ATOM     27 C16  MOL A   1       5.908 -18.200  -8.379  1.00  0.00     0.064 C 
ATOM     28 C17  MOL A   1       6.077 -16.728  -8.057  1.00  0.00     0.272 C 
ATOM     29 F18  MOL A   1       5.766 -16.407  -6.747  1.00  0.00    -0.204 F 
ATOM     30 F19  MOL A   1       5.503 -15.883  -8.993  1.00  0.00    -0.204 F 
ATOM     31 C20  MOL A   1       7.556 -16.965  -8.287  1.00  0.00     0.064 C 
ENDBRANCH  25  26
ENDBRANCH  20  25
BRANCH  24  32
ATOM     32 O25  MOL A   1       9.702 -23.245 -10.234  1.00  0.00    -0.493 OA
ATOM     33 C26  MOL A   1      10.409 -23.509  -9.026  1.00  0.00     0.078 C 
ENDBRANCH  24  32
ENDBRANCH  18  19
ENDBRANCH  17  18
ENDBRANCH  15  17
ENDBRANCH   8  14
ENDBRANCH   1   8
TORSDOF 10
ENDMDL
MODEL 529
REMARK VINA RESULT:    -6.826     10.528     13.665
REMARK INTER + INTRA:         -11.865
REMARK INTER:                 -10.031
REMARK INTRA:                  -1.835
REMARK UNBOUND:                -1.048
REMARK  10 active torsions:
REMARK  status: ('A' for Active; 'I' for Inactive)
REMARK   1   A    between atoms:  C27_1   and   C6_8  
REMARK   2   A    between atoms:  C6_8    and   C5_9  
REMARK   3   A    between atoms:  C5_9    and   C3_12 
REMARK   4   A    between atoms:  C6_8    and   N7_14 
REMARK   5   A    between atoms:  C8_15   and  C10_17 
REMARK   6   A    between atoms: C10_17   and  O11_18 
REMARK   7   A    between atoms: O11_18   and  C12_19 
REMARK   8   A    between atoms: C13_20   and  C14_25 
REMARK   9   A    between atoms: C14_25   and  N15_26 
REMARK   10  A    between atoms: C24_24   and  O25_32 
ROOT
ATOM      1 C27  MOL A   1      15.310 -16.705  -3.660  1.00  0.00    -0.024 A 
ATOM      2 C28  MOL A   1      14.841 -16.154  -4.867  1.00  0.00    -0.057 A 
ATOM      3 C29  MOL A   1      14.285 -14.871  -4.890  1.00  0.00    -0.061 A 
ATOM      4 C30  MOL A   1      14.191 -14.126  -3.711  1.00  0.00    -0.048 A 
ATOM      5 C31  MOL A   1      14.657 -14.660  -2.505  1.00  0.00     0.018 A 
ATOM      6 Br32 MOL A   1      14.548 -13.631  -0.896  1.00  0.00    -0.051 Br
ATOM      7 C33  MOL A   1      15.209 -15.945  -2.477  1.00  0.00    -0.043 A 
ENDROOT
BRANCH   1   8
ATOM      8  C6  MOL A   1      15.844 -18.121  -3.630  1.00  0.00     0.063 C 
BRANCH   8   9
ATOM      9  C5  MOL A   1      16.174 -18.530  -2.183  1.00  0.00     0.051 C 
BRANCH   9  12
ATOM     10  C1  MOL A   1      14.705 -21.381   0.026  1.00  0.00     0.006 C 
ATOM     11  N2  MOL A   1      15.453 -20.212  -0.412  1.00  0.00    -0.359 N 
ATOM     12  C3  MOL A   1      15.398 -19.745  -1.765  1.00  0.00     0.222 C 
ATOM     13  O4  MOL A   1      14.693 -20.353  -2.616  1.00  0.00    -0.275 OA
ENDBRANCH   9  12
ENDBRANCH   8   9
BRANCH   8  14
ATOM     14  N7  MOL A   1      17.032 -18.234  -4.483  1.00  0.00    -0.346 N 
ATOM     15  C8  MOL A   1      17.241 -19.335  -5.369  1.00  0.00     0.258 C 
ATOM     16  O9  MOL A   1      16.394 -20.266  -5.436  1.00  0.00    -0.271 OA
BRANCH  15  17
ATOM     17 C10  MOL A   1      18.461 -19.389  -6.238  1.00  0.00     0.167 C 
BRANCH  17  18
ATOM     18 O11  MOL A   1      18.116 -19.802  -7.558  1.00  0.00    -0.480 OA
BRANCH  18  19
ATOM     19 C12  MOL A   1      18.386 -19.009  -8.677  1.00  0.00     0.166 A 
ATOM     20 C13  MOL A   1      17.540 -17.933  -9.031  1.00  0.00     0.012 A 
ATOM     21 C21  MOL A   1      17.892 -17.114 -10.117  1.00  0.00    -0.054 A 
ATOM     22 C22  MOL A   1      19.035 -17.386 -10.868  1.00  0.00    -0.058 A 
ATOM     23 C23  MOL A   1      19.841 -18.479 -10.548  1.00  0.00    -0.016 A 
ATOM     24 C24  MOL A   1      19.520 -19.302  -9.452  1.00  0.00     0.161 A 
BRANCH  20  25
ATOM     25 C14  MOL A   1      16.264 -17.639  -8.273  1.00  0.00     0.028 C 
BRANCH  25  26
ATOM     26 N15  MOL A   1      15.096 -18.175  -9.002  1.00  0.00    -0.287 NA
ATOM     27 C16  MOL A   1      13.831 -17.672  -8.442  1.00  0.00     0.064 C 
ATOM     28 C17  MOL A   1      13.409 -19.049  -7.967  1.00  0.00     0.272 C 
ATOM     29 F18  MOL A   1      12.303 -19.551  -8.630  1.00  0.00    -0.204 F 
ATOM     30 F19  MOL A   1      13.338 -19.166  -6.588  1.00  0.00    -0.204 F 
ATOM     31 C20  MOL A   1      14.728 -19.526  -8.544  1.00  0.00     0.064 C 
ENDBRANCH  25  26
ENDBRANCH  20  25
BRANCH  24  32
ATOM     32 O25  MOL A   1      20.303 -20.410  -9.098  1.00  0.00    -0.493 OA
ATOM     33 C26  MOL A   1      20.509 -21.549  -9.927  1.00  0.00     0.078 C 
ENDBRANCH  24  32
ENDBRANCH  18  19
ENDBRANCH  17  18
ENDBRANCH  15  17
ENDBRANCH   8  14
ENDBRANCH   1   8
TORSDOF 10
ENDMDL
MODEL 530
REMARK VINA RESULT:    -6.823      5.747      9.804
REMARK INTER + INTRA:         -11.860
REMARK INTER:                 -11.634
REMARK INTRA:                  -0.226
REMARK UNBOUND:                -1.048
REMARK  10 active torsions:
REMARK  status: ('A' for Active; 'I' for Inactive)
REMARK   1   A    between atoms:  C27_1   and   C6_8  
REMARK   2   A    between atoms:  C6_8    and   C5_9  
REMARK   3   A    between atoms:  C5_9    and   C3_12 
REMARK   4   A    between atoms:  C6_8    and   N7_14 
REMARK   5   A    between atoms:  C8_15   and  C10_17 
REMARK   6   A    between atoms: C10_17   and  O11_18 
REMARK   7   A    between atoms: O11_18   and  C12_19 
REMARK   8   A    between atoms: C13_20   and  C14_25 
REMARK   9   A    between atoms: C14_25   and  N15_26 
REMARK   10  A    between atoms: C24_24   and  O25_32 
ROOT
ATOM      1 C27  MOL A   1       7.806 -20.213  -9.388  1.00  0.00    -0.024 A 
ATOM      2 C28  MOL A   1       8.703 -21.078 -10.041  1.00  0.00    -0.057 A 
ATOM      3 C29  MOL A   1       8.233 -22.219 -10.699  1.00  0.00    -0.061 A 
ATOM      4 C30  MOL A   1       6.866 -22.509 -10.711  1.00  0.00    -0.048 A 
ATOM      5 C31  MOL A   1       5.962 -21.655 -10.068  1.00  0.00     0.018 A 
ATOM      6 Br32 MOL A   1       4.089 -22.041 -10.104  1.00  0.00    -0.051 Br
ATOM      7 C33  MOL A   1       6.429 -20.516  -9.405  1.00  0.00    -0.043 A 
ENDROOT
BRANCH   1   8
ATOM      8  C6  MOL A   1       8.329 -19.020  -8.617  1.00  0.00     0.063 C 
BRANCH   8   9
ATOM      9  C5  MOL A   1       7.315 -17.864  -8.683  1.00  0.00     0.051 C 
BRANCH   9  12
ATOM     10  C1  MOL A   1       6.955 -17.186 -12.501  1.00  0.00     0.006 C 
ATOM     11  N2  MOL A   1       6.931 -17.838 -11.200  1.00  0.00    -0.359 N 
ATOM     12  C3  MOL A   1       7.361 -17.167 -10.011  1.00  0.00     0.222 C 
ATOM     13  O4  MOL A   1       7.779 -15.978 -10.073  1.00  0.00    -0.275 OA
ENDBRANCH   9  12
ENDBRANCH   8   9
BRANCH   8  14
ATOM     14  N7  MOL A   1       9.628 -18.599  -9.152  1.00  0.00    -0.346 N 
ATOM     15  C8  MOL A   1      10.721 -18.224  -8.312  1.00  0.00     0.258 C 
ATOM     16  O9  MOL A   1      10.592 -18.236  -7.059  1.00  0.00    -0.271 OA
BRANCH  15  17
ATOM     17 C10  MOL A   1      12.037 -17.827  -8.911  1.00  0.00     0.167 C 
BRANCH  17  18
ATOM     18 O11  MOL A   1      13.086 -17.982  -7.959  1.00  0.00    -0.480 OA
BRANCH  18  19
ATOM     19 C12  MOL A   1      14.389 -17.543  -8.213  1.00  0.00     0.166 A 
ATOM     20 C13  MOL A   1      14.808 -16.245  -7.841  1.00  0.00     0.012 A 
ATOM     21 C21  MOL A   1      16.148 -15.874  -8.044  1.00  0.00    -0.054 A 
ATOM     22 C22  MOL A   1      17.044 -16.756  -8.648  1.00  0.00    -0.058 A 
ATOM     23 C23  MOL A   1      16.615 -18.018  -9.059  1.00  0.00    -0.016 A 
ATOM     24 C24  MOL A   1      15.282 -18.420  -8.849  1.00  0.00     0.161 A 
BRANCH  20  25
ATOM     25 C14  MOL A   1      13.853 -15.243  -7.232  1.00  0.00     0.028 C 
BRANCH  25  26
ATOM     26 N15  MOL A   1      13.454 -15.669  -5.875  1.00  0.00    -0.287 NA
ATOM     27 C16  MOL A   1      13.498 -14.548  -4.921  1.00  0.00     0.064 C 
ATOM     28 C17  MOL A   1      14.633 -15.168  -4.131  1.00  0.00     0.272 C 
ATOM     29 F18  MOL A   1      14.275 -15.552  -2.850  1.00  0.00    -0.204 F 
ATOM     30 F19  MOL A   1      15.814 -14.446  -4.191  1.00  0.00    -0.204 F 
ATOM     31 C20  MOL A   1      14.566 -16.297  -5.141  1.00  0.00     0.064 C 
ENDBRANCH  25  26
ENDBRANCH  20  25
BRANCH  24  32
ATOM     32 O25  MOL A   1      14.812 -19.679  -9.249  1.00  0.00    -0.493 OA
ATOM     33 C26  MOL A   1      14.432 -20.718  -8.353  1.00  0.00     0.078 C 
ENDBRANCH  24  32
ENDBRANCH  18  19
ENDBRANCH  17  18
ENDBRANCH  15  17
ENDBRANCH   8  14
ENDBRANCH   1   8
TORSDOF 10
ENDMDL
MODEL 531
REMARK VINA RESULT:    -6.823      5.455      8.943
REMARK INTER + INTRA:         -11.859
REMARK INTER:                 -10.632
REMARK INTRA:                  -1.227
REMARK UNBOUND:                -1.048
REMARK  10 active torsions:
REMARK  status: ('A' for Active; 'I' for Inactive)
REMARK   1   A    between atoms:  C27_1   and   C6_8  
REMARK   2   A    between atoms:  C6_8    and   C5_9  
REMARK   3   A    between atoms:  C5_9    and   C3_12 
REMARK   4   A    between atoms:  C6_8    and   N7_14 
REMARK   5   A    between atoms:  C8_15   and  C10_17 
REMARK   6   A    between atoms: C10_17   and  O11_18 
REMARK   7   A    between atoms: O11_18   and  C12_19 
REMARK   8   A    between atoms: C13_20   and  C14_25 
REMARK   9   A    between atoms: C14_25   and  N15_26 
REMARK   10  A    between atoms: C24_24   and  O25_32 
ROOT
ATOM      1 C27  MOL A   1      15.496 -19.558  -8.314  1.00  0.00    -0.024 A 
ATOM      2 C28  MOL A   1      16.022 -20.851  -8.488  1.00  0.00    -0.057 A 
ATOM      3 C29  MOL A   1      17.145 -21.056  -9.296  1.00  0.00    -0.061 A 
ATOM      4 C30  MOL A   1      17.754 -19.974  -9.937  1.00  0.00    -0.048 A 
ATOM      5 C31  MOL A   1      17.243 -18.682  -9.770  1.00  0.00     0.018 A 
ATOM      6 Br32 MOL A   1      18.090 -17.198 -10.632  1.00  0.00    -0.051 Br
ATOM      7 C33  MOL A   1      16.117 -18.474  -8.968  1.00  0.00    -0.043 A 
ENDROOT
BRANCH   1   8
ATOM      8  C6  MOL A   1      14.238 -19.355  -7.497  1.00  0.00     0.063 C 
BRANCH   8   9
ATOM      9  C5  MOL A   1      14.380 -20.048  -6.130  1.00  0.00     0.051 C 
BRANCH   9  12
ATOM     10  C1  MOL A   1      16.484 -18.934  -3.048  1.00  0.00     0.006 C 
ATOM     11  N2  MOL A   1      15.769 -19.752  -4.016  1.00  0.00    -0.359 N 
ATOM     12  C3  MOL A   1      15.100 -19.176  -5.143  1.00  0.00     0.222 C 
ATOM     13  O4  MOL A   1      15.115 -17.926  -5.316  1.00  0.00    -0.275 OA
ENDBRANCH   9  12
ENDBRANCH   8   9
BRANCH   8  14
ATOM     14  N7  MOL A   1      13.073 -19.875  -8.221  1.00  0.00    -0.346 N 
ATOM     15  C8  MOL A   1      11.993 -19.039  -8.643  1.00  0.00     0.258 C 
ATOM     16  O9  MOL A   1      12.009 -17.805  -8.389  1.00  0.00    -0.271 OA
BRANCH  15  17
ATOM     17 C10  MOL A   1      10.838 -19.618  -9.403  1.00  0.00     0.167 C 
BRANCH  17  18
ATOM     18 O11  MOL A   1      10.134 -20.562  -8.599  1.00  0.00    -0.480 OA
BRANCH  18  19
ATOM     19 C12  MOL A   1       9.011 -21.245  -9.071  1.00  0.00     0.166 A 
ATOM     20 C13  MOL A   1       7.734 -20.637  -9.077  1.00  0.00     0.012 A 
ATOM     21 C21  MOL A   1       6.647 -21.332  -9.633  1.00  0.00    -0.054 A 
ATOM     22 C22  MOL A   1       6.812 -22.624 -10.131  1.00  0.00    -0.058 A 
ATOM     23 C23  MOL A   1       8.062 -23.241 -10.078  1.00  0.00    -0.016 A 
ATOM     24 C24  MOL A   1       9.170 -22.558  -9.544  1.00  0.00     0.161 A 
BRANCH  20  25
ATOM     25 C14  MOL A   1       7.506 -19.259  -8.498  1.00  0.00     0.028 C 
BRANCH  25  26
ATOM     26 N15  MOL A   1       6.915 -18.364  -9.514  1.00  0.00    -0.287 NA
ATOM     27 C16  MOL A   1       7.954 -17.701 -10.321  1.00  0.00     0.064 C 
ATOM     28 C17  MOL A   1       7.603 -16.329  -9.779  1.00  0.00     0.272 C 
ATOM     29 F18  MOL A   1       7.068 -15.477 -10.729  1.00  0.00    -0.204 F 
ATOM     30 F19  MOL A   1       8.606 -15.758  -9.013  1.00  0.00    -0.204 F 
ATOM     31 C20  MOL A   1       6.554 -17.050  -8.955  1.00  0.00     0.064 C 
ENDBRANCH  25  26
ENDBRANCH  20  25
BRANCH  24  32
ATOM     32 O25  MOL A   1      10.443 -23.143  -9.472  1.00  0.00    -0.493 OA
ATOM     33 C26  MOL A   1      10.749 -24.462  -9.911  1.00  0.00     0.078 C 
ENDBRANCH  24  32
ENDBRANCH  18  19
ENDBRANCH  17  18
ENDBRANCH  15  17
ENDBRANCH   8  14
ENDBRANCH   1   8
TORSDOF 10
ENDMDL
MODEL 532
REMARK VINA RESULT:    -6.822      6.664     10.072
REMARK INTER + INTRA:         -11.858
REMARK INTER:                 -10.566
REMARK INTRA:                  -1.293
REMARK UNBOUND:                -1.048
REMARK  10 active torsions:
REMARK  status: ('A' for Active; 'I' for Inactive)
REMARK   1   A    between atoms:  C27_1   and   C6_8  
REMARK   2   A    between atoms:  C6_8    and   C5_9  
REMARK   3   A    between atoms:  C5_9    and   C3_12 
REMARK   4   A    between atoms:  C6_8    and   N7_14 
REMARK   5   A    between atoms:  C8_15   and  C10_17 
REMARK   6   A    between atoms: C10_17   and  O11_18 
REMARK   7   A    between atoms: O11_18   and  C12_19 
REMARK   8   A    between atoms: C13_20   and  C14_25 
REMARK   9   A    between atoms: C14_25   and  N15_26 
REMARK   10  A    between atoms: C24_24   and  O25_32 
ROOT
ATOM      1 C27  MOL A   1      15.295 -19.216  -4.482  1.00  0.00    -0.024 A 
ATOM      2 C28  MOL A   1      15.156 -19.771  -3.197  1.00  0.00    -0.057 A 
ATOM      3 C29  MOL A   1      15.248 -18.958  -2.062  1.00  0.00    -0.061 A 
ATOM      4 C30  MOL A   1      15.480 -17.587  -2.198  1.00  0.00    -0.048 A 
ATOM      5 C31  MOL A   1      15.616 -17.022  -3.471  1.00  0.00     0.018 A 
ATOM      6 Br32 MOL A   1      15.911 -15.141  -3.657  1.00  0.00    -0.051 Br
ATOM      7 C33  MOL A   1      15.530 -17.832  -4.608  1.00  0.00    -0.043 A 
ENDROOT
BRANCH   1   8
ATOM      8  C6  MOL A   1      15.266 -20.113  -5.701  1.00  0.00     0.063 C 
BRANCH   8   9
ATOM      9  C5  MOL A   1      16.694 -20.313  -6.242  1.00  0.00     0.051 C 
BRANCH   9  12
ATOM     10  C1  MOL A   1      17.480 -22.724  -9.199  1.00  0.00     0.006 C 
ATOM     11  N2  MOL A   1      17.354 -21.525  -8.383  1.00  0.00    -0.359 N 
ATOM     12  C3  MOL A   1      16.801 -21.566  -7.063  1.00  0.00     0.222 C 
ATOM     13  O4  MOL A   1      16.401 -22.659  -6.578  1.00  0.00    -0.275 OA
ENDBRANCH   9  12
ENDBRANCH   8   9
BRANCH   8  14
ATOM     14  N7  MOL A   1      14.398 -19.538  -6.735  1.00  0.00    -0.346 N 
ATOM     15  C8  MOL A   1      13.282 -20.244  -7.281  1.00  0.00     0.258 C 
ATOM     16  O9  MOL A   1      13.012 -21.409  -6.887  1.00  0.00    -0.271 OA
BRANCH  15  17
ATOM     17 C10  MOL A   1      12.411 -19.599  -8.317  1.00  0.00     0.167 C 
BRANCH  17  18
ATOM     18 O11  MOL A   1      11.055 -19.563  -7.877  1.00  0.00    -0.480 OA
BRANCH  18  19
ATOM     19 C12  MOL A   1      10.143 -18.622  -8.363  1.00  0.00     0.166 A 
ATOM     20 C13  MOL A   1       9.248 -18.944  -9.409  1.00  0.00     0.012 A 
ATOM     21 C21  MOL A   1       8.295 -17.994  -9.812  1.00  0.00    -0.054 A 
ATOM     22 C22  MOL A   1       8.262 -16.730  -9.223  1.00  0.00    -0.058 A 
ATOM     23 C23  MOL A   1       9.179 -16.397  -8.226  1.00  0.00    -0.016 A 
ATOM     24 C24  MOL A   1      10.130 -17.339  -7.792  1.00  0.00     0.161 A 
BRANCH  20  25
ATOM     25 C14  MOL A   1       9.288 -20.285 -10.108  1.00  0.00     0.028 C 
BRANCH  25  26
ATOM     26 N15  MOL A   1       7.927 -20.705 -10.499  1.00  0.00    -0.287 NA
ATOM     27 C16  MOL A   1       7.293 -21.528  -9.455  1.00  0.00     0.064 C 
ATOM     28 C17  MOL A   1       7.277 -22.762 -10.336  1.00  0.00     0.272 C 
ATOM     29 F18  MOL A   1       6.005 -23.175 -10.691  1.00  0.00    -0.204 F 
ATOM     30 F19  MOL A   1       8.092 -23.785  -9.878  1.00  0.00    -0.204 F 
ATOM     31 C20  MOL A   1       7.941 -21.885 -11.380  1.00  0.00     0.064 C 
ENDBRANCH  25  26
ENDBRANCH  20  25
BRANCH  24  32
ATOM     32 O25  MOL A   1      11.070 -17.044  -6.793  1.00  0.00    -0.493 OA
ATOM     33 C26  MOL A   1      12.256 -16.286  -7.003  1.00  0.00     0.078 C 
ENDBRANCH  24  32
ENDBRANCH  18  19
ENDBRANCH  17  18
ENDBRANCH  15  17
ENDBRANCH   8  14
ENDBRANCH   1   8
TORSDOF 10
ENDMDL
MODEL 533
REMARK VINA RESULT:    -6.819      5.095      8.143
REMARK INTER + INTRA:         -11.853
REMARK INTER:                 -11.647
REMARK INTRA:                  -0.206
REMARK UNBOUND:                -1.048
REMARK  10 active torsions:
REMARK  status: ('A' for Active; 'I' for Inactive)
REMARK   1   A    between atoms:  C27_1   and   C6_8  
REMARK   2   A    between atoms:  C6_8    and   C5_9  
REMARK   3   A    between atoms:  C5_9    and   C3_12 
REMARK   4   A    between atoms:  C6_8    and   N7_14 
REMARK   5   A    between atoms:  C8_15   and  C10_17 
REMARK   6   A    between atoms: C10_17   and  O11_18 
REMARK   7   A    between atoms: O11_18   and  C12_19 
REMARK   8   A    between atoms: C13_20   and  C14_25 
REMARK   9   A    between atoms: C14_25   and  N15_26 
REMARK   10  A    between atoms: C24_24   and  O25_32 
ROOT
ATOM      1 C27  MOL A   1       6.384 -16.168  -9.852  1.00  0.00    -0.024 A 
ATOM      2 C28  MOL A   1       5.368 -15.199  -9.935  1.00  0.00    -0.057 A 
ATOM      3 C29  MOL A   1       4.913 -14.755 -11.182  1.00  0.00    -0.061 A 
ATOM      4 C30  MOL A   1       5.467 -15.274 -12.355  1.00  0.00    -0.048 A 
ATOM      5 C31  MOL A   1       6.476 -16.241 -12.287  1.00  0.00     0.018 A 
ATOM      6 Br32 MOL A   1       7.219 -16.966 -13.894  1.00  0.00    -0.051 Br
ATOM      7 C33  MOL A   1       6.938 -16.682 -11.043  1.00  0.00    -0.043 A 
ENDROOT
BRANCH   1   8
ATOM      8  C6  MOL A   1       6.921 -16.588  -8.501  1.00  0.00     0.063 C 
BRANCH   8   9
ATOM      9  C5  MOL A   1       8.455 -16.703  -8.556  1.00  0.00     0.051 C 
BRANCH   9  12
ATOM     10  C1  MOL A   1       9.946 -20.189  -7.665  1.00  0.00     0.006 C 
ATOM     11  N2  MOL A   1       9.516 -18.801  -7.577  1.00  0.00    -0.359 N 
ATOM     12  C3  MOL A   1       8.897 -18.132  -8.681  1.00  0.00     0.222 C 
ATOM     13  O4  MOL A   1       8.715 -18.743  -9.769  1.00  0.00    -0.275 OA
ENDBRANCH   9  12
ENDBRANCH   8   9
BRANCH   8  14
ATOM     14  N7  MOL A   1       6.323 -17.863  -8.091  1.00  0.00    -0.346 N 
ATOM     15  C8  MOL A   1       5.084 -17.939  -7.382  1.00  0.00     0.258 C 
ATOM     16  O9  MOL A   1       4.464 -16.887  -7.074  1.00  0.00    -0.271 OA
BRANCH  15  17
ATOM     17 C10  MOL A   1       4.504 -19.270  -7.010  1.00  0.00     0.167 C 
BRANCH  17  18
ATOM     18 O11  MOL A   1       5.227 -20.324  -7.640  1.00  0.00    -0.480 OA
BRANCH  18  19
ATOM     19 C12  MOL A   1       4.667 -21.104  -8.655  1.00  0.00     0.166 A 
ATOM     20 C13  MOL A   1       5.482 -21.774  -9.597  1.00  0.00     0.012 A 
ATOM     21 C21  MOL A   1       4.880 -22.611 -10.551  1.00  0.00    -0.054 A 
ATOM     22 C22  MOL A   1       3.493 -22.743 -10.603  1.00  0.00    -0.058 A 
ATOM     23 C23  MOL A   1       2.688 -22.041  -9.705  1.00  0.00    -0.016 A 
ATOM     24 C24  MOL A   1       3.269 -21.213  -8.727  1.00  0.00     0.161 A 
BRANCH  20  25
ATOM     25 C14  MOL A   1       6.986 -21.613  -9.606  1.00  0.00     0.028 C 
BRANCH  25  26
ATOM     26 N15  MOL A   1       7.603 -22.581 -10.536  1.00  0.00    -0.287 NA
ATOM     27 C16  MOL A   1       8.388 -23.599  -9.817  1.00  0.00     0.064 C 
ATOM     28 C17  MOL A   1       9.696 -23.111 -10.406  1.00  0.00     0.272 C 
ATOM     29 F18  MOL A   1      10.292 -24.020 -11.263  1.00  0.00    -0.204 F 
ATOM     30 F19  MOL A   1      10.563 -22.572  -9.470  1.00  0.00    -0.204 F 
ATOM     31 C20  MOL A   1       8.855 -22.070 -11.119  1.00  0.00     0.064 C 
ENDBRANCH  25  26
ENDBRANCH  20  25
BRANCH  24  32
ATOM     32 O25  MOL A   1       2.495 -20.491  -7.807  1.00  0.00    -0.493 OA
ATOM     33 C26  MOL A   1       1.073 -20.521  -7.750  1.00  0.00     0.078 C 
ENDBRANCH  24  32
ENDBRANCH  18  19
ENDBRANCH  17  18
ENDBRANCH  15  17
ENDBRANCH   8  14
ENDBRANCH   1   8
TORSDOF 10
ENDMDL
MODEL 534
REMARK VINA RESULT:    -6.818      6.871     10.792
REMARK INTER + INTRA:         -11.852
REMARK INTER:                 -10.476
REMARK INTRA:                  -1.376
REMARK UNBOUND:                -1.048
REMARK  10 active torsions:
REMARK  status: ('A' for Active; 'I' for Inactive)
REMARK   1   A    between atoms:  C27_1   and   C6_8  
REMARK   2   A    between atoms:  C6_8    and   C5_9  
REMARK   3   A    between atoms:  C5_9    and   C3_12 
REMARK   4   A    between atoms:  C6_8    and   N7_14 
REMARK   5   A    between atoms:  C8_15   and  C10_17 
REMARK   6   A    between atoms: C10_17   and  O11_18 
REMARK   7   A    between atoms: O11_18   and  C12_19 
REMARK   8   A    between atoms: C13_20   and  C14_25 
REMARK   9   A    between atoms: C14_25   and  N15_26 
REMARK   10  A    between atoms: C24_24   and  O25_32 
ROOT
ATOM      1 C27  MOL A   1       9.847 -19.362  -8.413  1.00  0.00    -0.024 A 
ATOM      2 C28  MOL A   1       8.900 -20.336  -8.049  1.00  0.00    -0.057 A 
ATOM      3 C29  MOL A   1       7.538 -20.125  -8.293  1.00  0.00    -0.061 A 
ATOM      4 C30  MOL A   1       7.110 -18.942  -8.901  1.00  0.00    -0.048 A 
ATOM      5 C31  MOL A   1       8.042 -17.966  -9.271  1.00  0.00     0.018 A 
ATOM      6 Br32 MOL A   1       7.457 -16.357 -10.123  1.00  0.00    -0.051 Br
ATOM      7 C33  MOL A   1       9.404 -18.171  -9.023  1.00  0.00    -0.043 A 
ENDROOT
BRANCH   1   8
ATOM      8  C6  MOL A   1      11.309 -19.566  -8.080  1.00  0.00     0.063 C 
BRANCH   8   9
ATOM      9  C5  MOL A   1      11.448 -20.497  -6.862  1.00  0.00     0.051 C 
BRANCH   9  12
ATOM     10  C1  MOL A   1      14.958 -22.169  -7.102  1.00  0.00     0.006 C 
ATOM     11  N2  MOL A   1      13.898 -21.189  -6.911  1.00  0.00    -0.359 N 
ATOM     12  C3  MOL A   1      12.518 -21.529  -7.076  1.00  0.00     0.222 C 
ATOM     13  O4  MOL A   1      12.189 -22.702  -7.401  1.00  0.00    -0.275 OA
ENDBRANCH   9  12
ENDBRANCH   8   9
BRANCH   8  14
ATOM     14  N7  MOL A   1      11.956 -18.276  -7.819  1.00  0.00    -0.346 N 
ATOM     15  C8  MOL A   1      13.146 -17.862  -8.494  1.00  0.00     0.258 C 
ATOM     16  O9  MOL A   1      13.690 -18.616  -9.343  1.00  0.00    -0.271 OA
BRANCH  15  17
ATOM     17 C10  MOL A   1      13.752 -16.520  -8.208  1.00  0.00     0.167 C 
BRANCH  17  18
ATOM     18 O11  MOL A   1      15.168 -16.628  -8.086  1.00  0.00    -0.480 OA
BRANCH  18  19
ATOM     19 C12  MOL A   1      15.769 -17.428  -7.110  1.00  0.00     0.166 A 
ATOM     20 C13  MOL A   1      15.463 -17.263  -5.739  1.00  0.00     0.012 A 
ATOM     21 C21  MOL A   1      16.030 -18.141  -4.801  1.00  0.00    -0.054 A 
ATOM     22 C22  MOL A   1      16.921 -19.134  -5.208  1.00  0.00    -0.058 A 
ATOM     23 C23  MOL A   1      17.260 -19.262  -6.555  1.00  0.00    -0.016 A 
ATOM     24 C24  MOL A   1      16.690 -18.407  -7.516  1.00  0.00     0.161 A 
BRANCH  20  25
ATOM     25 C14  MOL A   1      14.543 -16.165  -5.255  1.00  0.00     0.028 C 
BRANCH  25  26
ATOM     26 N15  MOL A   1      14.807 -15.860  -3.834  1.00  0.00    -0.287 NA
ATOM     27 C16  MOL A   1      13.670 -15.163  -3.209  1.00  0.00     0.064 C 
ATOM     28 C17  MOL A   1      14.467 -13.890  -3.008  1.00  0.00     0.272 C 
ATOM     29 F18  MOL A   1      14.702 -13.585  -1.678  1.00  0.00    -0.204 F 
ATOM     30 F19  MOL A   1      14.006 -12.819  -3.756  1.00  0.00    -0.204 F 
ATOM     31 C20  MOL A   1      15.610 -14.637  -3.667  1.00  0.00     0.064 C 
ENDBRANCH  25  26
ENDBRANCH  20  25
BRANCH  24  32
ATOM     32 O25  MOL A   1      17.005 -18.503  -8.879  1.00  0.00    -0.493 OA
ATOM     33 C26  MOL A   1      17.581 -19.650  -9.495  1.00  0.00     0.078 C 
ENDBRANCH  24  32
ENDBRANCH  18  19
ENDBRANCH  17  18
ENDBRANCH  15  17
ENDBRANCH   8  14
ENDBRANCH   1   8
TORSDOF 10
ENDMDL
MODEL 535
REMARK VINA RESULT:    -6.817      6.372     11.129
REMARK INTER + INTRA:         -11.851
REMARK INTER:                 -11.746
REMARK INTRA:                  -0.105
REMARK UNBOUND:                -1.048
REMARK  10 active torsions:
REMARK  status: ('A' for Active; 'I' for Inactive)
REMARK   1   A    between atoms:  C27_1   and   C6_8  
REMARK   2   A    between atoms:  C6_8    and   C5_9  
REMARK   3   A    between atoms:  C5_9    and   C3_12 
REMARK   4   A    between atoms:  C6_8    and   N7_14 
REMARK   5   A    between atoms:  C8_15   and  C10_17 
REMARK   6   A    between atoms: C10_17   and  O11_18 
REMARK   7   A    between atoms: O11_18   and  C12_19 
REMARK   8   A    between atoms: C13_20   and  C14_25 
REMARK   9   A    between atoms: C14_25   and  N15_26 
REMARK   10  A    between atoms: C24_24   and  O25_32 
ROOT
ATOM      1 C27  MOL A   1       9.290 -18.202  -9.475  1.00  0.00    -0.024 A 
ATOM      2 C28  MOL A   1       8.863 -17.285  -8.497  1.00  0.00    -0.057 A 
ATOM      3 C29  MOL A   1       7.867 -16.348  -8.793  1.00  0.00    -0.061 A 
ATOM      4 C30  MOL A   1       7.289 -16.317 -10.065  1.00  0.00    -0.048 A 
ATOM      5 C31  MOL A   1       7.703 -17.226 -11.046  1.00  0.00     0.018 A 
ATOM      6 Br32 MOL A   1       6.895 -17.197 -12.780  1.00  0.00    -0.051 Br
ATOM      7 C33  MOL A   1       8.702 -18.161 -10.755  1.00  0.00    -0.043 A 
ENDROOT
BRANCH   1   8
ATOM      8  C6  MOL A   1      10.418 -19.164  -9.170  1.00  0.00     0.063 C 
BRANCH   8   9
ATOM      9  C5  MOL A   1       9.952 -20.215  -8.146  1.00  0.00     0.051 C 
BRANCH   9  12
ATOM     10  C1  MOL A   1       7.151 -22.500  -9.598  1.00  0.00     0.006 C 
ATOM     11  N2  MOL A   1       7.843 -21.399  -8.944  1.00  0.00    -0.359 N 
ATOM     12  C3  MOL A   1       9.268 -21.371  -8.817  1.00  0.00     0.222 C 
ATOM     13  O4  MOL A   1       9.962 -22.321  -9.274  1.00  0.00    -0.275 OA
ENDBRANCH   9  12
ENDBRANCH   8   9
BRANCH   8  14
ATOM     14  N7  MOL A   1      11.586 -18.434  -8.665  1.00  0.00    -0.346 N 
ATOM     15  C8  MOL A   1      12.776 -19.094  -8.229  1.00  0.00     0.258 C 
ATOM     16  O9  MOL A   1      12.852 -20.351  -8.258  1.00  0.00    -0.271 OA
BRANCH  15  17
ATOM     17 C10  MOL A   1      13.951 -18.298  -7.746  1.00  0.00     0.167 C 
BRANCH  17  18
ATOM     18 O11  MOL A   1      14.447 -18.833  -6.521  1.00  0.00    -0.480 OA
BRANCH  18  19
ATOM     19 C12  MOL A   1      15.801 -18.775  -6.181  1.00  0.00     0.166 A 
ATOM     20 C13  MOL A   1      16.292 -17.781  -5.303  1.00  0.00     0.012 A 
ATOM     21 C21  MOL A   1      17.645 -17.807  -4.926  1.00  0.00    -0.054 A 
ATOM     22 C22  MOL A   1      18.507 -18.772  -5.448  1.00  0.00    -0.058 A 
ATOM     23 C23  MOL A   1      18.032 -19.721  -6.353  1.00  0.00    -0.016 A 
ATOM     24 C24  MOL A   1      16.676 -19.727  -6.730  1.00  0.00     0.161 A 
BRANCH  20  25
ATOM     25 C14  MOL A   1      15.400 -16.688  -4.758  1.00  0.00     0.028 C 
BRANCH  25  26
ATOM     26 N15  MOL A   1      15.765 -15.383  -5.347  1.00  0.00    -0.287 NA
ATOM     27 C16  MOL A   1      15.010 -15.116  -6.583  1.00  0.00     0.064 C 
ATOM     28 C17  MOL A   1      16.255 -15.176  -7.444  1.00  0.00     0.272 C 
ATOM     29 F18  MOL A   1      16.594 -13.962  -8.017  1.00  0.00    -0.204 F 
ATOM     30 F19  MOL A   1      16.268 -16.239  -8.333  1.00  0.00    -0.204 F 
ATOM     31 C20  MOL A   1      16.996 -15.462  -6.153  1.00  0.00     0.064 C 
ENDBRANCH  25  26
ENDBRANCH  20  25
BRANCH  24  32
ATOM     32 O25  MOL A   1      16.158 -20.662  -7.638  1.00  0.00    -0.493 OA
ATOM     33 C26  MOL A   1      16.091 -22.064  -7.399  1.00  0.00     0.078 C 
ENDBRANCH  24  32
ENDBRANCH  18  19
ENDBRANCH  17  18
ENDBRANCH  15  17
ENDBRANCH   8  14
ENDBRANCH   1   8
TORSDOF 10
ENDMDL
MODEL 536
REMARK VINA RESULT:    -6.817      9.230     12.468
REMARK INTER + INTRA:         -11.850
REMARK INTER:                 -10.440
REMARK INTRA:                  -1.410
REMARK UNBOUND:                -1.048
REMARK  10 active torsions:
REMARK  status: ('A' for Active; 'I' for Inactive)
REMARK   1   A    between atoms:  C27_1   and   C6_8  
REMARK   2   A    between atoms:  C6_8    and   C5_9  
REMARK   3   A    between atoms:  C5_9    and   C3_12 
REMARK   4   A    between atoms:  C6_8    and   N7_14 
REMARK   5   A    between atoms:  C8_15   and  C10_17 
REMARK   6   A    between atoms: C10_17   and  O11_18 
REMARK   7   A    between atoms: O11_18   and  C12_19 
REMARK   8   A    between atoms: C13_20   and  C14_25 
REMARK   9   A    between atoms: C14_25   and  N15_26 
REMARK   10  A    between atoms: C24_24   and  O25_32 
ROOT
ATOM      1 C27  MOL A   1      15.458 -17.731  -1.714  1.00  0.00    -0.024 A 
ATOM      2 C28  MOL A   1      14.941 -16.736  -0.865  1.00  0.00    -0.057 A 
ATOM      3 C29  MOL A   1      14.203 -17.088   0.270  1.00  0.00    -0.061 A 
ATOM      4 C30  MOL A   1      13.975 -18.434   0.569  1.00  0.00    -0.048 A 
ATOM      5 C31  MOL A   1      14.486 -19.434  -0.266  1.00  0.00     0.018 A 
ATOM      6 Br32 MOL A   1      14.191 -21.276   0.156  1.00  0.00    -0.051 Br
ATOM      7 C33  MOL A   1      15.220 -19.086  -1.404  1.00  0.00    -0.043 A 
ENDROOT
BRANCH   1   8
ATOM      8  C6  MOL A   1      16.192 -17.341  -2.979  1.00  0.00     0.063 C 
BRANCH   8   9
ATOM      9  C5  MOL A   1      16.282 -15.808  -3.085  1.00  0.00     0.051 C 
BRANCH   9  12
ATOM     10  C1  MOL A   1      19.869 -15.063  -4.410  1.00  0.00     0.006 C 
ATOM     11  N2  MOL A   1      18.762 -15.457  -3.551  1.00  0.00    -0.359 N 
ATOM     12  C3  MOL A   1      17.401 -15.384  -3.991  1.00  0.00     0.222 C 
ATOM     13  O4  MOL A   1      17.134 -14.963  -5.150  1.00  0.00    -0.275 OA
ENDBRANCH   9  12
ENDBRANCH   8   9
BRANCH   8  14
ATOM     14  N7  MOL A   1      15.515 -17.901  -4.153  1.00  0.00    -0.346 N 
ATOM     15  C8  MOL A   1      16.189 -18.716  -5.114  1.00  0.00     0.258 C 
ATOM     16  O9  MOL A   1      17.415 -18.973  -4.981  1.00  0.00    -0.271 OA
BRANCH  15  17
ATOM     17 C10  MOL A   1      15.442 -19.285  -6.283  1.00  0.00     0.167 C 
BRANCH  17  18
ATOM     18 O11  MOL A   1      14.976 -18.240  -7.134  1.00  0.00    -0.480 OA
BRANCH  18  19
ATOM     19 C12  MOL A   1      13.626 -17.883  -7.199  1.00  0.00     0.166 A 
ATOM     20 C13  MOL A   1      12.632 -18.838  -7.512  1.00  0.00     0.012 A 
ATOM     21 C21  MOL A   1      11.281 -18.453  -7.489  1.00  0.00    -0.054 A 
ATOM     22 C22  MOL A   1      10.925 -17.134  -7.207  1.00  0.00    -0.058 A 
ATOM     23 C23  MOL A   1      11.911 -16.182  -6.947  1.00  0.00    -0.016 A 
ATOM     24 C24  MOL A   1      13.270 -16.548  -6.946  1.00  0.00     0.161 A 
BRANCH  20  25
ATOM     25 C14  MOL A   1      12.983 -20.264  -7.875  1.00  0.00     0.028 C 
BRANCH  25  26
ATOM     26 N15  MOL A   1      12.199 -21.212  -7.057  1.00  0.00    -0.287 NA
ATOM     27 C16  MOL A   1      13.016 -21.812  -5.989  1.00  0.00     0.064 C 
ATOM     28 C17  MOL A   1      12.928 -23.197  -6.599  1.00  0.00     0.272 C 
ATOM     29 F18  MOL A   1      12.212 -24.098  -5.830  1.00  0.00    -0.204 F 
ATOM     30 F19  MOL A   1      14.143 -23.685  -7.051  1.00  0.00    -0.204 F 
ATOM     31 C20  MOL A   1      12.101 -22.540  -7.687  1.00  0.00     0.064 C 
ENDBRANCH  25  26
ENDBRANCH  20  25
BRANCH  24  32
ATOM     32 O25  MOL A   1      14.291 -15.622  -6.690  1.00  0.00    -0.493 OA
ATOM     33 C26  MOL A   1      14.462 -14.397  -7.396  1.00  0.00     0.078 C 
ENDBRANCH  24  32
ENDBRANCH  18  19
ENDBRANCH  17  18
ENDBRANCH  15  17
ENDBRANCH   8  14
ENDBRANCH   1   8
TORSDOF 10
ENDMDL
MODEL 537
REMARK VINA RESULT:    -6.814      7.100     10.073
REMARK INTER + INTRA:         -11.845
REMARK INTER:                 -10.871
REMARK INTRA:                  -0.974
REMARK UNBOUND:                -1.048
REMARK  10 active torsions:
REMARK  status: ('A' for Active; 'I' for Inactive)
REMARK   1   A    between atoms:  C27_1   and   C6_8  
REMARK   2   A    between atoms:  C6_8    and   C5_9  
REMARK   3   A    between atoms:  C5_9    and   C3_12 
REMARK   4   A    between atoms:  C6_8    and   N7_14 
REMARK   5   A    between atoms:  C8_15   and  C10_17 
REMARK   6   A    between atoms: C10_17   and  O11_18 
REMARK   7   A    between atoms: O11_18   and  C12_19 
REMARK   8   A    between atoms: C13_20   and  C14_25 
REMARK   9   A    between atoms: C14_25   and  N15_26 
REMARK   10  A    between atoms: C24_24   and  O25_32 
ROOT
ATOM      1 C27  MOL A   1      -0.639 -22.698 -11.382  1.00  0.00    -0.024 A 
ATOM      2 C28  MOL A   1      -1.359 -23.892 -11.572  1.00  0.00    -0.057 A 
ATOM      3 C29  MOL A   1      -2.296 -23.997 -12.605  1.00  0.00    -0.061 A 
ATOM      4 C30  MOL A   1      -2.525 -22.913 -13.457  1.00  0.00    -0.048 A 
ATOM      5 C31  MOL A   1      -1.814 -21.720 -13.281  1.00  0.00     0.018 A 
ATOM      6 Br32 MOL A   1      -2.112 -20.244 -14.461  1.00  0.00    -0.051 Br
ATOM      7 C33  MOL A   1      -0.880 -21.610 -12.245  1.00  0.00    -0.043 A 
ENDROOT
BRANCH   1   8
ATOM      8  C6  MOL A   1       0.319 -22.569 -10.218  1.00  0.00     0.063 C 
BRANCH   8   9
ATOM      9  C5  MOL A   1      -0.133 -21.429  -9.287  1.00  0.00     0.051 C 
BRANCH   9  12
ATOM     10  C1  MOL A   1      -1.130 -23.540  -6.169  1.00  0.00     0.006 C 
ATOM     11  N2  MOL A   1      -0.399 -23.019  -7.315  1.00  0.00    -0.359 N 
ATOM     12  C3  MOL A   1      -0.916 -21.951  -8.117  1.00  0.00     0.222 C 
ATOM     13  O4  MOL A   1      -2.035 -21.438  -7.842  1.00  0.00    -0.275 OA
ENDBRANCH   9  12
ENDBRANCH   8   9
BRANCH   8  14
ATOM     14  N7  MOL A   1       1.681 -22.327 -10.705  1.00  0.00    -0.346 N 
ATOM     15  C8  MOL A   1       2.831 -22.448  -9.866  1.00  0.00     0.258 C 
ATOM     16  O9  MOL A   1       2.702 -22.762  -8.653  1.00  0.00    -0.271 OA
BRANCH  15  17
ATOM     17 C10  MOL A   1       4.204 -22.216 -10.422  1.00  0.00     0.167 C 
BRANCH  17  18
ATOM     18 O11  MOL A   1       5.135 -21.973  -9.370  1.00  0.00    -0.480 OA
BRANCH  18  19
ATOM     19 C12  MOL A   1       5.678 -20.707  -9.138  1.00  0.00     0.166 A 
ATOM     20 C13  MOL A   1       6.749 -20.216  -9.921  1.00  0.00     0.012 A 
ATOM     21 C21  MOL A   1       7.212 -18.908  -9.706  1.00  0.00    -0.054 A 
ATOM     22 C22  MOL A   1       6.656 -18.117  -8.700  1.00  0.00    -0.058 A 
ATOM     23 C23  MOL A   1       5.634 -18.620  -7.896  1.00  0.00    -0.016 A 
ATOM     24 C24  MOL A   1       5.140 -19.921  -8.106  1.00  0.00     0.161 A 
BRANCH  20  25
ATOM     25 C14  MOL A   1       7.411 -21.064 -10.985  1.00  0.00     0.028 C 
BRANCH  25  26
ATOM     26 N15  MOL A   1       8.818 -21.336 -10.625  1.00  0.00    -0.287 NA
ATOM     27 C16  MOL A   1       9.280 -22.620 -11.180  1.00  0.00     0.064 C 
ATOM     28 C17  MOL A   1       9.437 -23.242  -9.806  1.00  0.00     0.272 C 
ATOM     29 F18  MOL A   1      10.750 -23.520  -9.468  1.00  0.00    -0.204 F 
ATOM     30 F19  MOL A   1       8.561 -24.288  -9.565  1.00  0.00    -0.204 F 
ATOM     31 C20  MOL A   1       8.945 -21.910  -9.274  1.00  0.00     0.064 C 
ENDBRANCH  25  26
ENDBRANCH  20  25
BRANCH  24  32
ATOM     32 O25  MOL A   1       4.115 -20.466  -7.319  1.00  0.00    -0.493 OA
ATOM     33 C26  MOL A   1       4.326 -21.215  -6.127  1.00  0.00     0.078 C 
ENDBRANCH  24  32
ENDBRANCH  18  19
ENDBRANCH  17  18
ENDBRANCH  15  17
ENDBRANCH   8  14
ENDBRANCH   1   8
TORSDOF 10
ENDMDL
MODEL 538
REMARK VINA RESULT:    -6.813      5.970      9.864
REMARK INTER + INTRA:         -11.845
REMARK INTER:                 -10.655
REMARK INTRA:                  -1.190
REMARK UNBOUND:                -1.048
REMARK  10 active torsions:
REMARK  status: ('A' for Active; 'I' for Inactive)
REMARK   1   A    between atoms:  C27_1   and   C6_8  
REMARK   2   A    between atoms:  C6_8    and   C5_9  
REMARK   3   A    between atoms:  C5_9    and   C3_12 
REMARK   4   A    between atoms:  C6_8    and   N7_14 
REMARK   5   A    between atoms:  C8_15   and  C10_17 
REMARK   6   A    between atoms: C10_17   and  O11_18 
REMARK   7   A    between atoms: O11_18   and  C12_19 
REMARK   8   A    between atoms: C13_20   and  C14_25 
REMARK   9   A    between atoms: C14_25   and  N15_26 
REMARK   10  A    between atoms: C24_24   and  O25_32 
ROOT
ATOM      1 C27  MOL A   1      15.126 -16.522  -4.650  1.00  0.00    -0.024 A 
ATOM      2 C28  MOL A   1      14.335 -15.407  -4.983  1.00  0.00    -0.057 A 
ATOM      3 C29  MOL A   1      13.701 -14.665  -3.981  1.00  0.00    -0.061 A 
ATOM      4 C30  MOL A   1      13.850 -15.027  -2.640  1.00  0.00    -0.048 A 
ATOM      5 C31  MOL A   1      14.637 -16.131  -2.294  1.00  0.00     0.018 A 
ATOM      6 Br32 MOL A   1      14.859 -16.612  -0.456  1.00  0.00    -0.051 Br
ATOM      7 C33  MOL A   1      15.268 -16.879  -3.294  1.00  0.00    -0.043 A 
ENDROOT
BRANCH   1   8
ATOM      8  C6  MOL A   1      15.749 -17.362  -5.744  1.00  0.00     0.063 C 
BRANCH   8   9
ATOM      9  C5  MOL A   1      17.000 -16.660  -6.301  1.00  0.00     0.051 C 
BRANCH   9  12
ATOM     10  C1  MOL A   1      17.366 -17.470 -10.094  1.00  0.00     0.006 C 
ATOM     11  N2  MOL A   1      17.424 -17.569  -8.642  1.00  0.00    -0.359 N 
ATOM     12  C3  MOL A   1      16.936 -16.524  -7.795  1.00  0.00     0.222 C 
ATOM     13  O4  MOL A   1      16.443 -15.478  -8.300  1.00  0.00    -0.275 OA
ENDBRANCH   9  12
ENDBRANCH   8   9
BRANCH   8  14
ATOM     14  N7  MOL A   1      14.775 -17.607  -6.813  1.00  0.00    -0.346 N 
ATOM     15  C8  MOL A   1      14.330 -18.920  -7.162  1.00  0.00     0.258 C 
ATOM     16  O9  MOL A   1      14.780 -19.926  -6.552  1.00  0.00    -0.271 OA
BRANCH  15  17
ATOM     17 C10  MOL A   1      13.312 -19.112  -8.246  1.00  0.00     0.167 C 
BRANCH  17  18
ATOM     18 O11  MOL A   1      12.091 -19.608  -7.703  1.00  0.00    -0.480 OA
BRANCH  18  19
ATOM     19 C12  MOL A   1      11.265 -20.483  -8.413  1.00  0.00     0.166 A 
ATOM     20 C13  MOL A   1      10.257 -19.997  -9.277  1.00  0.00     0.012 A 
ATOM     21 C21  MOL A   1       9.502 -20.910 -10.031  1.00  0.00    -0.054 A 
ATOM     22 C22  MOL A   1       9.709 -22.283  -9.896  1.00  0.00    -0.058 A 
ATOM     23 C23  MOL A   1      10.670 -22.762  -9.005  1.00  0.00    -0.016 A 
ATOM     24 C24  MOL A   1      11.452 -21.865  -8.253  1.00  0.00     0.161 A 
BRANCH  20  25
ATOM     25 C14  MOL A   1       9.967 -18.518  -9.410  1.00  0.00     0.028 C 
BRANCH  25  26
ATOM     26 N15  MOL A   1       9.111 -18.058  -8.298  1.00  0.00    -0.287 NA
ATOM     27 C16  MOL A   1       7.681 -18.218  -8.613  1.00  0.00     0.064 C 
ATOM     28 C17  MOL A   1       7.440 -16.722  -8.623  1.00  0.00     0.272 C 
ATOM     29 F18  MOL A   1       6.622 -16.283  -7.596  1.00  0.00    -0.204 F 
ATOM     30 F19  MOL A   1       7.095 -16.221  -9.868  1.00  0.00    -0.204 F 
ATOM     31 C20  MOL A   1       8.919 -16.597  -8.312  1.00  0.00     0.064 C 
ENDBRANCH  25  26
ENDBRANCH  20  25
BRANCH  24  32
ATOM     32 O25  MOL A   1      12.427 -22.306  -7.347  1.00  0.00    -0.493 OA
ATOM     33 C26  MOL A   1      13.568 -23.080  -7.704  1.00  0.00     0.078 C 
ENDBRANCH  24  32
ENDBRANCH  18  19
ENDBRANCH  17  18
ENDBRANCH  15  17
ENDBRANCH   8  14
ENDBRANCH   1   8
TORSDOF 10
ENDMDL
MODEL 539
REMARK VINA RESULT:    -6.812      7.189     10.490
REMARK INTER + INTRA:         -11.843
REMARK INTER:                 -10.715
REMARK INTRA:                  -1.127
REMARK UNBOUND:                -1.048
REMARK  10 active torsions:
REMARK  status: ('A' for Active; 'I' for Inactive)
REMARK   1   A    between atoms:  C27_1   and   C6_8  
REMARK   2   A    between atoms:  C6_8    and   C5_9  
REMARK   3   A    between atoms:  C5_9    and   C3_12 
REMARK   4   A    between atoms:  C6_8    and   N7_14 
REMARK   5   A    between atoms:  C8_15   and  C10_17 
REMARK   6   A    between atoms: C10_17   and  O11_18 
REMARK   7   A    between atoms: O11_18   and  C12_19 
REMARK   8   A    between atoms: C13_20   and  C14_25 
REMARK   9   A    between atoms: C14_25   and  N15_26 
REMARK   10  A    between atoms: C24_24   and  O25_32 
ROOT
ATOM      1 C27  MOL A   1      16.207 -18.613  -4.276  1.00  0.00    -0.024 A 
ATOM      2 C28  MOL A   1      16.372 -17.295  -3.813  1.00  0.00    -0.057 A 
ATOM      3 C29  MOL A   1      16.048 -16.964  -2.493  1.00  0.00    -0.061 A 
ATOM      4 C30  MOL A   1      15.556 -17.942  -1.624  1.00  0.00    -0.048 A 
ATOM      5 C31  MOL A   1      15.390 -19.258  -2.072  1.00  0.00     0.018 A 
ATOM      6 Br32 MOL A   1      14.738 -20.601  -0.876  1.00  0.00    -0.051 Br
ATOM      7 C33  MOL A   1      15.708 -19.592  -3.392  1.00  0.00    -0.043 A 
ENDROOT
BRANCH   1   8
ATOM      8  C6  MOL A   1      16.491 -18.947  -5.725  1.00  0.00     0.063 C 
BRANCH   8   9
ATOM      9  C5  MOL A   1      17.642 -18.072  -6.252  1.00  0.00     0.051 C 
BRANCH   9  12
ATOM     10  C1  MOL A   1      16.227 -14.943  -8.089  1.00  0.00     0.006 C 
ATOM     11  N2  MOL A   1      16.673 -15.855  -7.046  1.00  0.00    -0.359 N 
ATOM     12  C3  MOL A   1      17.181 -17.158  -7.350  1.00  0.00     0.222 C 
ATOM     13  O4  MOL A   1      17.248 -17.547  -8.548  1.00  0.00    -0.275 OA
ENDBRANCH   9  12
ENDBRANCH   8   9
BRANCH   8  14
ATOM     14  N7  MOL A   1      15.284 -18.757  -6.536  1.00  0.00    -0.346 N 
ATOM     15  C8  MOL A   1      14.769 -19.773  -7.398  1.00  0.00     0.258 C 
ATOM     16  O9  MOL A   1      15.356 -20.883  -7.494  1.00  0.00    -0.271 OA
BRANCH  15  17
ATOM     17 C10  MOL A   1      13.516 -19.535  -8.187  1.00  0.00     0.167 C 
BRANCH  17  18
ATOM     18 O11  MOL A   1      12.406 -19.338  -7.313  1.00  0.00    -0.480 OA
BRANCH  18  19
ATOM     19 C12  MOL A   1      11.331 -18.514  -7.655  1.00  0.00     0.166 A 
ATOM     20 C13  MOL A   1      10.220 -19.019  -8.369  1.00  0.00     0.012 A 
ATOM     21 C21  MOL A   1       9.127 -18.175  -8.622  1.00  0.00    -0.054 A 
ATOM     22 C22  MOL A   1       9.153 -16.841  -8.217  1.00  0.00    -0.058 A 
ATOM     23 C23  MOL A   1      10.271 -16.331  -7.557  1.00  0.00    -0.016 A 
ATOM     24 C24  MOL A   1      11.371 -17.163  -7.275  1.00  0.00     0.161 A 
BRANCH  20  25
ATOM     25 C14  MOL A   1      10.178 -20.446  -8.871  1.00  0.00     0.028 C 
BRANCH  25  26
ATOM     26 N15  MOL A   1       8.940 -20.686  -9.641  1.00  0.00    -0.287 NA
ATOM     27 C16  MOL A   1       7.985 -21.515  -8.886  1.00  0.00     0.064 C 
ATOM     28 C17  MOL A   1       8.102 -22.668  -9.863  1.00  0.00     0.272 C 
ATOM     29 F18  MOL A   1       6.940 -22.913 -10.574  1.00  0.00    -0.204 F 
ATOM     30 F19  MOL A   1       8.677 -23.804  -9.318  1.00  0.00    -0.204 F 
ATOM     31 C20  MOL A   1       9.090 -21.789 -10.605  1.00  0.00     0.064 C 
ENDBRANCH  25  26
ENDBRANCH  20  25
BRANCH  24  32
ATOM     32 O25  MOL A   1      12.514 -16.689  -6.614  1.00  0.00    -0.493 OA
ATOM     33 C26  MOL A   1      12.858 -15.314  -6.485  1.00  0.00     0.078 C 
ENDBRANCH  24  32
ENDBRANCH  18  19
ENDBRANCH  17  18
ENDBRANCH  15  17
ENDBRANCH   8  14
ENDBRANCH   1   8
TORSDOF 10
ENDMDL
MODEL 540
REMARK VINA RESULT:    -6.810      6.591     10.191
REMARK INTER + INTRA:         -11.839
REMARK INTER:                 -10.733
REMARK INTRA:                  -1.106
REMARK UNBOUND:                -1.048
REMARK  10 active torsions:
REMARK  status: ('A' for Active; 'I' for Inactive)
REMARK   1   A    between atoms:  C27_1   and   C6_8  
REMARK   2   A    between atoms:  C6_8    and   C5_9  
REMARK   3   A    between atoms:  C5_9    and   C3_12 
REMARK   4   A    between atoms:  C6_8    and   N7_14 
REMARK   5   A    between atoms:  C8_15   and  C10_17 
REMARK   6   A    between atoms: C10_17   and  O11_18 
REMARK   7   A    between atoms: O11_18   and  C12_19 
REMARK   8   A    between atoms: C13_20   and  C14_25 
REMARK   9   A    between atoms: C14_25   and  N15_26 
REMARK   10  A    between atoms: C24_24   and  O25_32 
ROOT
ATOM      1 C27  MOL A   1      16.057 -17.334  -5.011  1.00  0.00    -0.024 A 
ATOM      2 C28  MOL A   1      16.047 -15.930  -5.096  1.00  0.00    -0.057 A 
ATOM      3 C29  MOL A   1      15.683 -15.156  -3.989  1.00  0.00    -0.061 A 
ATOM      4 C30  MOL A   1      15.327 -15.775  -2.787  1.00  0.00    -0.048 A 
ATOM      5 C31  MOL A   1      15.335 -17.171  -2.688  1.00  0.00     0.018 A 
ATOM      6 Br32 MOL A   1      14.868 -18.016  -1.037  1.00  0.00    -0.051 Br
ATOM      7 C33  MOL A   1      15.693 -17.948  -3.795  1.00  0.00    -0.043 A 
ENDROOT
BRANCH   1   8
ATOM      8  C6  MOL A   1      16.381 -18.165  -6.233  1.00  0.00     0.063 C 
BRANCH   8   9
ATOM      9  C5  MOL A   1      17.770 -17.783  -6.777  1.00  0.00     0.051 C 
BRANCH   9  12
ATOM     10  C1  MOL A   1      19.650 -21.114  -7.512  1.00  0.00     0.006 C 
ATOM     11  N2  MOL A   1      19.039 -19.991  -6.816  1.00  0.00    -0.359 N 
ATOM     12  C3  MOL A   1      18.400 -18.923  -7.524  1.00  0.00     0.222 C 
ATOM     13  O4  MOL A   1      18.361 -18.934  -8.785  1.00  0.00    -0.275 OA
ENDBRANCH   9  12
ENDBRANCH   8   9
BRANCH   8  14
ATOM     14  N7  MOL A   1      15.353 -17.976  -7.263  1.00  0.00    -0.346 N 
ATOM     15  C8  MOL A   1      14.198 -18.811  -7.359  1.00  0.00     0.258 C 
ATOM     16  O9  MOL A   1      14.032 -19.761  -6.549  1.00  0.00    -0.271 OA
BRANCH  15  17
ATOM     17 C10  MOL A   1      13.164 -18.558  -8.415  1.00  0.00     0.167 C 
BRANCH  17  18
ATOM     18 O11  MOL A   1      11.862 -18.865  -7.923  1.00  0.00    -0.480 OA
BRANCH  18  19
ATOM     19 C12  MOL A   1      10.742 -18.102  -8.263  1.00  0.00     0.166 A 
ATOM     20 C13  MOL A   1       9.910 -18.468  -9.346  1.00  0.00     0.012 A 
ATOM     21 C21  MOL A   1       8.750 -17.717  -9.603  1.00  0.00    -0.054 A 
ATOM     22 C22  MOL A   1       8.447 -16.596  -8.831  1.00  0.00    -0.058 A 
ATOM     23 C23  MOL A   1       9.296 -16.208  -7.794  1.00  0.00    -0.016 A 
ATOM     24 C24  MOL A   1      10.453 -16.956  -7.505  1.00  0.00     0.161 A 
BRANCH  20  25
ATOM     25 C14  MOL A   1      10.235 -19.646 -10.238  1.00  0.00     0.028 C 
BRANCH  25  26
ATOM     26 N15  MOL A   1       9.850 -20.912  -9.581  1.00  0.00    -0.287 NA
ATOM     27 C16  MOL A   1       9.202 -21.837 -10.527  1.00  0.00     0.064 C 
ATOM     28 C17  MOL A   1       7.871 -21.757  -9.806  1.00  0.00     0.272 C 
ATOM     29 F18  MOL A   1       7.491 -22.944  -9.205  1.00  0.00    -0.204 F 
ATOM     30 F19  MOL A   1       6.868 -21.160 -10.553  1.00  0.00    -0.204 F 
ATOM     31 C20  MOL A   1       8.569 -20.798  -8.862  1.00  0.00     0.064 C 
ENDBRANCH  25  26
ENDBRANCH  20  25
BRANCH  24  32
ATOM     32 O25  MOL A   1      11.333 -16.599  -6.473  1.00  0.00    -0.493 OA
ATOM     33 C26  MOL A   1      12.296 -15.554  -6.561  1.00  0.00     0.078 C 
ENDBRANCH  24  32
ENDBRANCH  18  19
ENDBRANCH  17  18
ENDBRANCH  15  17
ENDBRANCH   8  14
ENDBRANCH   1   8
TORSDOF 10
ENDMDL
MODEL 541
REMARK VINA RESULT:    -6.808      7.003      9.946
REMARK INTER + INTRA:         -11.836
REMARK INTER:                 -11.508
REMARK INTRA:                  -0.328
REMARK UNBOUND:                -1.048
REMARK  10 active torsions:
REMARK  status: ('A' for Active; 'I' for Inactive)
REMARK   1   A    between atoms:  C27_1   and   C6_8  
REMARK   2   A    between atoms:  C6_8    and   C5_9  
REMARK   3   A    between atoms:  C5_9    and   C3_12 
REMARK   4   A    between atoms:  C6_8    and   N7_14 
REMARK   5   A    between atoms:  C8_15   and  C10_17 
REMARK   6   A    between atoms: C10_17   and  O11_18 
REMARK   7   A    between atoms: O11_18   and  C12_19 
REMARK   8   A    between atoms: C13_20   and  C14_25 
REMARK   9   A    between atoms: C14_25   and  N15_26 
REMARK   10  A    between atoms: C24_24   and  O25_32 
ROOT
ATOM      1 C27  MOL A   1       6.678 -21.365  -8.981  1.00  0.00    -0.024 A 
ATOM      2 C28  MOL A   1       6.449 -20.406  -7.977  1.00  0.00    -0.057 A 
ATOM      3 C29  MOL A   1       5.143 -20.042  -7.632  1.00  0.00    -0.061 A 
ATOM      4 C30  MOL A   1       4.055 -20.628  -8.285  1.00  0.00    -0.048 A 
ATOM      5 C31  MOL A   1       4.269 -21.585  -9.283  1.00  0.00     0.018 A 
ATOM      6 Br32 MOL A   1       2.779 -22.404 -10.160  1.00  0.00    -0.051 Br
ATOM      7 C33  MOL A   1       5.573 -21.949  -9.634  1.00  0.00    -0.043 A 
ENDROOT
BRANCH   1   8
ATOM      8  C6  MOL A   1       8.093 -21.701  -9.399  1.00  0.00     0.063 C 
BRANCH   8   9
ATOM      9  C5  MOL A   1       8.315 -23.223  -9.335  1.00  0.00     0.051 C 
BRANCH   9  12
ATOM     10  C1  MOL A   1      11.207 -24.598 -11.552  1.00  0.00     0.006 C 
ATOM     11  N2  MOL A   1       9.884 -24.231 -11.070  1.00  0.00    -0.359 N 
ATOM     12  C3  MOL A   1       9.693 -23.598  -9.800  1.00  0.00     0.222 C 
ATOM     13  O4  MOL A   1      10.685 -23.348  -9.062  1.00  0.00    -0.275 OA
ENDBRANCH   9  12
ENDBRANCH   8   9
BRANCH   8  14
ATOM     14  N7  MOL A   1       9.056 -21.002  -8.540  1.00  0.00    -0.346 N 
ATOM     15  C8  MOL A   1      10.034 -20.097  -9.058  1.00  0.00     0.258 C 
ATOM     16  O9  MOL A   1      10.103 -19.878 -10.296  1.00  0.00    -0.271 OA
BRANCH  15  17
ATOM     17 C10  MOL A   1      10.977 -19.390  -8.132  1.00  0.00     0.167 C 
BRANCH  17  18
ATOM     18 O11  MOL A   1      12.286 -19.944  -8.234  1.00  0.00    -0.480 OA
BRANCH  18  19
ATOM     19 C12  MOL A   1      13.178 -19.942  -7.159  1.00  0.00     0.166 A 
ATOM     20 C13  MOL A   1      14.070 -18.864  -6.950  1.00  0.00     0.012 A 
ATOM     21 C21  MOL A   1      14.893 -18.867  -5.811  1.00  0.00    -0.054 A 
ATOM     22 C22  MOL A   1      14.869 -19.942  -4.923  1.00  0.00    -0.058 A 
ATOM     23 C23  MOL A   1      14.025 -21.028  -5.158  1.00  0.00    -0.016 A 
ATOM     24 C24  MOL A   1      13.176 -21.038  -6.280  1.00  0.00     0.161 A 
BRANCH  20  25
ATOM     25 C14  MOL A   1      14.162 -17.707  -7.920  1.00  0.00     0.028 C 
BRANCH  25  26
ATOM     26 N15  MOL A   1      14.688 -16.506  -7.240  1.00  0.00    -0.287 NA
ATOM     27 C16  MOL A   1      14.746 -15.350  -8.152  1.00  0.00     0.064 C 
ATOM     28 C17  MOL A   1      16.261 -15.301  -8.110  1.00  0.00     0.272 C 
ATOM     29 F18  MOL A   1      16.763 -14.168  -7.493  1.00  0.00    -0.204 F 
ATOM     30 F19  MOL A   1      16.862 -15.593  -9.323  1.00  0.00    -0.204 F 
ATOM     31 C20  MOL A   1      16.160 -16.498  -7.184  1.00  0.00     0.064 C 
ENDBRANCH  25  26
ENDBRANCH  20  25
BRANCH  24  32
ATOM     32 O25  MOL A   1      12.314 -22.110  -6.553  1.00  0.00    -0.493 OA
ATOM     33 C26  MOL A   1      12.646 -23.481  -6.358  1.00  0.00     0.078 C 
ENDBRANCH  24  32
ENDBRANCH  18  19
ENDBRANCH  17  18
ENDBRANCH  15  17
ENDBRANCH   8  14
ENDBRANCH   1   8
TORSDOF 10
ENDMDL
MODEL 542
REMARK VINA RESULT:    -6.807     10.815     13.615
REMARK INTER + INTRA:         -11.834
REMARK INTER:                  -9.830
REMARK INTRA:                  -2.005
REMARK UNBOUND:                -1.048
REMARK  10 active torsions:
REMARK  status: ('A' for Active; 'I' for Inactive)
REMARK   1   A    between atoms:  C27_1   and   C6_8  
REMARK   2   A    between atoms:  C6_8    and   C5_9  
REMARK   3   A    between atoms:  C5_9    and   C3_12 
REMARK   4   A    between atoms:  C6_8    and   N7_14 
REMARK   5   A    between atoms:  C8_15   and  C10_17 
REMARK   6   A    between atoms: C10_17   and  O11_18 
REMARK   7   A    between atoms: O11_18   and  C12_19 
REMARK   8   A    between atoms: C13_20   and  C14_25 
REMARK   9   A    between atoms: C14_25   and  N15_26 
REMARK   10  A    between atoms: C24_24   and  O25_32 
ROOT
ATOM      1 C27  MOL A   1      15.507 -18.141  -2.215  1.00  0.00    -0.024 A 
ATOM      2 C28  MOL A   1      14.573 -17.441  -1.429  1.00  0.00    -0.057 A 
ATOM      3 C29  MOL A   1      14.772 -16.090  -1.128  1.00  0.00    -0.061 A 
ATOM      4 C30  MOL A   1      15.903 -15.424  -1.608  1.00  0.00    -0.048 A 
ATOM      5 C31  MOL A   1      16.838 -16.107  -2.394  1.00  0.00     0.018 A 
ATOM      6 Br32 MOL A   1      18.376 -15.189  -3.068  1.00  0.00    -0.051 Br
ATOM      7 C33  MOL A   1      16.645 -17.460  -2.692  1.00  0.00    -0.043 A 
ENDROOT
BRANCH   1   8
ATOM      8  C6  MOL A   1      15.321 -19.620  -2.474  1.00  0.00     0.063 C 
BRANCH   8   9
ATOM      9  C5  MOL A   1      15.958 -20.439  -1.337  1.00  0.00     0.051 C 
BRANCH   9  12
ATOM     10  C1  MOL A   1      14.351 -20.411   2.212  1.00  0.00     0.006 C 
ATOM     11  N2  MOL A   1      15.277 -20.209   1.107  1.00  0.00    -0.359 N 
ATOM     12  C3  MOL A   1      14.986 -20.672  -0.216  1.00  0.00     0.222 C 
ATOM     13  O4  MOL A   1      13.906 -21.279  -0.450  1.00  0.00    -0.275 OA
ENDBRANCH   9  12
ENDBRANCH   8   9
BRANCH   8  14
ATOM     14  N7  MOL A   1      15.910 -19.987  -3.767  1.00  0.00    -0.346 N 
ATOM     15  C8  MOL A   1      15.146 -20.579  -4.819  1.00  0.00     0.258 C 
ATOM     16  O9  MOL A   1      13.920 -20.817  -4.658  1.00  0.00    -0.271 OA
BRANCH  15  17
ATOM     17 C10  MOL A   1      15.792 -20.911  -6.131  1.00  0.00     0.167 C 
BRANCH  17  18
ATOM     18 O11  MOL A   1      17.017 -20.196  -6.279  1.00  0.00    -0.480 OA
BRANCH  18  19
ATOM     19 C12  MOL A   1      17.277 -19.394  -7.394  1.00  0.00     0.166 A 
ATOM     20 C13  MOL A   1      16.831 -18.054  -7.450  1.00  0.00     0.012 A 
ATOM     21 C21  MOL A   1      17.183 -17.261  -8.555  1.00  0.00    -0.054 A 
ATOM     22 C22  MOL A   1      17.922 -17.800  -9.608  1.00  0.00    -0.058 A 
ATOM     23 C23  MOL A   1      18.317 -19.138  -9.573  1.00  0.00    -0.016 A 
ATOM     24 C24  MOL A   1      17.994 -19.946  -8.468  1.00  0.00     0.161 A 
BRANCH  20  25
ATOM     25 C14  MOL A   1      15.983 -17.449  -6.353  1.00  0.00     0.028 C 
BRANCH  25  26
ATOM     26 N15  MOL A   1      15.447 -16.140  -6.778  1.00  0.00    -0.287 NA
ATOM     27 C16  MOL A   1      15.652 -15.110  -5.745  1.00  0.00     0.064 C 
ATOM     28 C17  MOL A   1      14.164 -14.962  -5.493  1.00  0.00     0.272 C 
ATOM     29 F18  MOL A   1      13.657 -13.730  -5.869  1.00  0.00    -0.204 F 
ATOM     30 F19  MOL A   1      13.770 -15.370  -4.229  1.00  0.00    -0.204 F 
ATOM     31 C20  MOL A   1      13.995 -16.034  -6.552  1.00  0.00     0.064 C 
ENDBRANCH  25  26
ENDBRANCH  20  25
BRANCH  24  32
ATOM     32 O25  MOL A   1      18.372 -21.295  -8.394  1.00  0.00    -0.493 OA
ATOM     33 C26  MOL A   1      19.716 -21.759  -8.454  1.00  0.00     0.078 C 
ENDBRANCH  24  32
ENDBRANCH  18  19
ENDBRANCH  17  18
ENDBRANCH  15  17
ENDBRANCH   8  14
ENDBRANCH   1   8
TORSDOF 10
ENDMDL
MODEL 543
REMARK VINA RESULT:    -6.806     11.753     14.086
REMARK INTER + INTRA:         -11.834
REMARK INTER:                  -9.563
REMARK INTRA:                  -2.271
REMARK UNBOUND:                -1.048
REMARK  10 active torsions:
REMARK  status: ('A' for Active; 'I' for Inactive)
REMARK   1   A    between atoms:  C27_1   and   C6_8  
REMARK   2   A    between atoms:  C6_8    and   C5_9  
REMARK   3   A    between atoms:  C5_9    and   C3_12 
REMARK   4   A    between atoms:  C6_8    and   N7_14 
REMARK   5   A    between atoms:  C8_15   and  C10_17 
REMARK   6   A    between atoms: C10_17   and  O11_18 
REMARK   7   A    between atoms: O11_18   and  C12_19 
REMARK   8   A    between atoms: C13_20   and  C14_25 
REMARK   9   A    between atoms: C14_25   and  N15_26 
REMARK   10  A    between atoms: C24_24   and  O25_32 
ROOT
ATOM      1 C27  MOL A   1      14.709 -16.263  -2.490  1.00  0.00    -0.024 A 
ATOM      2 C28  MOL A   1      14.601 -15.236  -1.535  1.00  0.00    -0.057 A 
ATOM      3 C29  MOL A   1      14.251 -13.939  -1.926  1.00  0.00    -0.061 A 
ATOM      4 C30  MOL A   1      14.007 -13.655  -3.272  1.00  0.00    -0.048 A 
ATOM      5 C31  MOL A   1      14.108 -14.668  -4.233  1.00  0.00     0.018 A 
ATOM      6 Br32 MOL A   1      13.751 -14.283  -6.072  1.00  0.00    -0.051 Br
ATOM      7 C33  MOL A   1      14.462 -15.964  -3.846  1.00  0.00    -0.043 A 
ENDROOT
BRANCH   1   8
ATOM      8  C6  MOL A   1      15.159 -17.645  -2.069  1.00  0.00     0.063 C 
BRANCH   8   9
ATOM      9  C5  MOL A   1      16.019 -17.554  -0.796  1.00  0.00     0.051 C 
BRANCH   9  12
ATOM     10  C1  MOL A   1      13.621 -19.879   1.209  1.00  0.00     0.006 C 
ATOM     11  N2  MOL A   1      14.188 -19.046   0.158  1.00  0.00    -0.359 N 
ATOM     12  C3  MOL A   1      15.456 -18.399   0.311  1.00  0.00     0.222 C 
ATOM     13  O4  MOL A   1      16.112 -18.537   1.379  1.00  0.00    -0.275 OA
ENDBRANCH   9  12
ENDBRANCH   8   9
BRANCH   8  14
ATOM     14  N7  MOL A   1      15.908 -18.289  -3.154  1.00  0.00    -0.346 N 
ATOM     15  C8  MOL A   1      15.571 -19.582  -3.659  1.00  0.00     0.258 C 
ATOM     16  O9  MOL A   1      14.604 -20.224  -3.168  1.00  0.00    -0.271 OA
BRANCH  15  17
ATOM     17 C10  MOL A   1      16.354 -20.183  -4.788  1.00  0.00     0.167 C 
BRANCH  17  18
ATOM     18 O11  MOL A   1      15.766 -19.841  -6.040  1.00  0.00    -0.480 OA
BRANCH  18  19
ATOM     19 C12  MOL A   1      16.539 -19.558  -7.170  1.00  0.00     0.166 A 
ATOM     20 C13  MOL A   1      17.098 -18.275  -7.370  1.00  0.00     0.012 A 
ATOM     21 C21  MOL A   1      17.934 -18.058  -8.478  1.00  0.00    -0.054 A 
ATOM     22 C22  MOL A   1      18.171 -19.079  -9.397  1.00  0.00    -0.058 A 
ATOM     23 C23  MOL A   1      17.578 -20.330  -9.225  1.00  0.00    -0.016 A 
ATOM     24 C24  MOL A   1      16.753 -20.578  -8.112  1.00  0.00     0.161 A 
BRANCH  20  25
ATOM     25 C14  MOL A   1      16.820 -17.128  -6.424  1.00  0.00     0.028 C 
BRANCH  25  26
ATOM     26 N15  MOL A   1      18.047 -16.337  -6.198  1.00  0.00    -0.287 NA
ATOM     27 C16  MOL A   1      18.800 -16.826  -5.031  1.00  0.00     0.064 C 
ATOM     28 C17  MOL A   1      18.555 -15.553  -4.246  1.00  0.00     0.272 C 
ATOM     29 F18  MOL A   1      19.702 -14.815  -4.012  1.00  0.00    -0.204 F 
ATOM     30 F19  MOL A   1      17.764 -15.733  -3.123  1.00  0.00    -0.204 F 
ATOM     31 C20  MOL A   1      17.776 -15.090  -5.462  1.00  0.00     0.064 C 
ENDBRANCH  25  26
ENDBRANCH  20  25
BRANCH  24  32
ATOM     32 O25  MOL A   1      16.137 -21.820  -7.902  1.00  0.00    -0.493 OA
ATOM     33 C26  MOL A   1      14.781 -22.111  -8.222  1.00  0.00     0.078 C 
ENDBRANCH  24  32
ENDBRANCH  18  19
ENDBRANCH  17  18
ENDBRANCH  15  17
ENDBRANCH   8  14
ENDBRANCH   1   8
TORSDOF 10
ENDMDL
MODEL 544
REMARK VINA RESULT:    -6.804      6.020     10.792
REMARK INTER + INTRA:         -11.831
REMARK INTER:                 -11.195
REMARK INTRA:                  -0.636
REMARK UNBOUND:                -1.048
REMARK  10 active torsions:
REMARK  status: ('A' for Active; 'I' for Inactive)
REMARK   1   A    between atoms:  C27_1   and   C6_8  
REMARK   2   A    between atoms:  C6_8    and   C5_9  
REMARK   3   A    between atoms:  C5_9    and   C3_12 
REMARK   4   A    between atoms:  C6_8    and   N7_14 
REMARK   5   A    between atoms:  C8_15   and  C10_17 
REMARK   6   A    between atoms: C10_17   and  O11_18 
REMARK   7   A    between atoms: O11_18   and  C12_19 
REMARK   8   A    between atoms: C13_20   and  C14_25 
REMARK   9   A    between atoms: C14_25   and  N15_26 
REMARK   10  A    between atoms: C24_24   and  O25_32 
ROOT
ATOM      1 C27  MOL A   1       8.472 -18.206 -10.370  1.00  0.00    -0.024 A 
ATOM      2 C28  MOL A   1       7.984 -17.699 -11.588  1.00  0.00    -0.057 A 
ATOM      3 C29  MOL A   1       6.923 -16.787 -11.601  1.00  0.00    -0.061 A 
ATOM      4 C30  MOL A   1       6.338 -16.374 -10.401  1.00  0.00    -0.048 A 
ATOM      5 C31  MOL A   1       6.816 -16.868  -9.182  1.00  0.00     0.018 A 
ATOM      6 Br32 MOL A   1       6.030 -16.285  -7.538  1.00  0.00    -0.051 Br
ATOM      7 C33  MOL A   1       7.873 -17.784  -9.165  1.00  0.00    -0.043 A 
ENDROOT
BRANCH   1   8
ATOM      8  C6  MOL A   1       9.571 -19.246 -10.368  1.00  0.00     0.063 C 
BRANCH   8   9
ATOM      9  C5  MOL A   1       8.973 -20.645 -10.600  1.00  0.00     0.051 C 
BRANCH   9  12
ATOM     10  C1  MOL A   1       6.260 -21.149  -7.851  1.00  0.00     0.006 C 
ATOM     11  N2  MOL A   1       7.543 -21.016  -8.525  1.00  0.00    -0.359 N 
ATOM     12  C3  MOL A   1       7.634 -20.789  -9.936  1.00  0.00     0.222 C 
ATOM     13  O4  MOL A   1       6.586 -20.705 -10.632  1.00  0.00    -0.275 OA
ENDBRANCH   9  12
ENDBRANCH   8   9
BRANCH   8  14
ATOM     14  N7  MOL A   1      10.310 -19.203  -9.102  1.00  0.00    -0.346 N 
ATOM     15  C8  MOL A   1      11.533 -18.481  -8.949  1.00  0.00     0.258 C 
ATOM     16  O9  MOL A   1      12.027 -17.855  -9.924  1.00  0.00    -0.271 OA
BRANCH  15  17
ATOM     17 C10  MOL A   1      12.234 -18.448  -7.624  1.00  0.00     0.167 C 
BRANCH  17  18
ATOM     18 O11  MOL A   1      13.628 -18.210  -7.803  1.00  0.00    -0.480 OA
BRANCH  18  19
ATOM     19 C12  MOL A   1      14.512 -18.134  -6.723  1.00  0.00     0.166 A 
ATOM     20 C13  MOL A   1      15.285 -19.252  -6.331  1.00  0.00     0.012 A 
ATOM     21 C21  MOL A   1      16.218 -19.108  -5.291  1.00  0.00    -0.054 A 
ATOM     22 C22  MOL A   1      16.348 -17.893  -4.619  1.00  0.00    -0.058 A 
ATOM     23 C23  MOL A   1      15.549 -16.806  -4.974  1.00  0.00    -0.016 A 
ATOM     24 C24  MOL A   1      14.622 -16.920  -6.026  1.00  0.00     0.161 A 
BRANCH  20  25
ATOM     25 C14  MOL A   1      15.133 -20.599  -7.001  1.00  0.00     0.028 C 
BRANCH  25  26
ATOM     26 N15  MOL A   1      14.619 -21.597  -6.041  1.00  0.00    -0.287 NA
ATOM     27 C16  MOL A   1      14.475 -22.924  -6.663  1.00  0.00     0.064 C 
ATOM     28 C17  MOL A   1      12.965 -22.904  -6.530  1.00  0.00     0.272 C 
ATOM     29 F18  MOL A   1      12.472 -23.850  -5.647  1.00  0.00    -0.204 F 
ATOM     30 F19  MOL A   1      12.298 -22.867  -7.743  1.00  0.00    -0.204 F 
ATOM     31 C20  MOL A   1      13.154 -21.535  -5.905  1.00  0.00     0.064 C 
ENDBRANCH  25  26
ENDBRANCH  20  25
BRANCH  24  32
ATOM     32 O25  MOL A   1      13.799 -15.852  -6.413  1.00  0.00    -0.493 OA
ATOM     33 C26  MOL A   1      13.351 -14.822  -5.538  1.00  0.00     0.078 C 
ENDBRANCH  24  32
ENDBRANCH  18  19
ENDBRANCH  17  18
ENDBRANCH  15  17
ENDBRANCH   8  14
ENDBRANCH   1   8
TORSDOF 10
ENDMDL
MODEL 545
REMARK VINA RESULT:    -6.802      6.107      9.951
REMARK INTER + INTRA:         -11.826
REMARK INTER:                 -10.803
REMARK INTRA:                  -1.023
REMARK UNBOUND:                -1.048
REMARK  10 active torsions:
REMARK  status: ('A' for Active; 'I' for Inactive)
REMARK   1   A    between atoms:  C27_1   and   C6_8  
REMARK   2   A    between atoms:  C6_8    and   C5_9  
REMARK   3   A    between atoms:  C5_9    and   C3_12 
REMARK   4   A    between atoms:  C6_8    and   N7_14 
REMARK   5   A    between atoms:  C8_15   and  C10_17 
REMARK   6   A    between atoms: C10_17   and  O11_18 
REMARK   7   A    between atoms: O11_18   and  C12_19 
REMARK   8   A    between atoms: C13_20   and  C14_25 
REMARK   9   A    between atoms: C14_25   and  N15_26 
REMARK   10  A    between atoms: C24_24   and  O25_32 
ROOT
ATOM      1 C27  MOL A   1       8.468 -20.525  -8.703  1.00  0.00    -0.024 A 
ATOM      2 C28  MOL A   1       7.122 -20.929  -8.636  1.00  0.00    -0.057 A 
ATOM      3 C29  MOL A   1       6.728 -22.166  -9.158  1.00  0.00    -0.061 A 
ATOM      4 C30  MOL A   1       7.671 -23.009  -9.752  1.00  0.00    -0.048 A 
ATOM      5 C31  MOL A   1       9.013 -22.620  -9.822  1.00  0.00     0.018 A 
ATOM      6 Br32 MOL A   1      10.307 -23.785 -10.615  1.00  0.00    -0.051 Br
ATOM      7 C33  MOL A   1       9.411 -21.383  -9.306  1.00  0.00    -0.043 A 
ENDROOT
BRANCH   1   8
ATOM      8  C6  MOL A   1       8.874 -19.156  -8.201  1.00  0.00     0.063 C 
BRANCH   8   9
ATOM      9  C5  MOL A   1       7.756 -18.137  -8.488  1.00  0.00     0.051 C 
BRANCH   9  12
ATOM     10  C1  MOL A   1       7.753 -17.776 -12.366  1.00  0.00     0.006 C 
ATOM     11  N2  MOL A   1       7.638 -18.329 -11.024  1.00  0.00    -0.359 N 
ATOM     12  C3  MOL A   1       7.894 -17.540  -9.858  1.00  0.00     0.222 C 
ATOM     13  O4  MOL A   1       8.236 -16.331  -9.975  1.00  0.00    -0.275 OA
ENDBRANCH   9  12
ENDBRANCH   8   9
BRANCH   8  14
ATOM     14  N7  MOL A   1      10.130 -18.735  -8.831  1.00  0.00    -0.346 N 
ATOM     15  C8  MOL A   1      11.118 -17.968  -8.139  1.00  0.00     0.258 C 
ATOM     16  O9  MOL A   1      10.927 -17.616  -6.945  1.00  0.00    -0.271 OA
BRANCH  15  17
ATOM     17 C10  MOL A   1      12.397 -17.587  -8.822  1.00  0.00     0.167 C 
BRANCH  17  18
ATOM     18 O11  MOL A   1      13.491 -17.666  -7.912  1.00  0.00    -0.480 OA
BRANCH  18  19
ATOM     19 C12  MOL A   1      14.629 -16.866  -8.050  1.00  0.00     0.166 A 
ATOM     20 C13  MOL A   1      14.714 -15.601  -7.423  1.00  0.00     0.012 A 
ATOM     21 C21  MOL A   1      15.906 -14.866  -7.523  1.00  0.00    -0.054 A 
ATOM     22 C22  MOL A   1      16.978 -15.353  -8.271  1.00  0.00    -0.058 A 
ATOM     23 C23  MOL A   1      16.874 -16.578  -8.930  1.00  0.00    -0.016 A 
ATOM     24 C24  MOL A   1      15.697 -17.342  -8.828  1.00  0.00     0.161 A 
BRANCH  20  25
ATOM     25 C14  MOL A   1      13.554 -15.017  -6.648  1.00  0.00     0.028 C 
BRANCH  25  26
ATOM     26 N15  MOL A   1      13.388 -15.719  -5.359  1.00  0.00    -0.287 NA
ATOM     27 C16  MOL A   1      12.832 -14.829  -4.326  1.00  0.00     0.064 C 
ATOM     28 C17  MOL A   1      14.102 -14.872  -3.500  1.00  0.00     0.272 C 
ATOM     29 F18  MOL A   1      13.952 -15.510  -2.281  1.00  0.00    -0.204 F 
ATOM     30 F19  MOL A   1      14.756 -13.654  -3.419  1.00  0.00    -0.204 F 
ATOM     31 C20  MOL A   1      14.644 -15.775  -4.592  1.00  0.00     0.064 C 
ENDBRANCH  25  26
ENDBRANCH  20  25
BRANCH  24  32
ATOM     32 O25  MOL A   1      15.551 -18.577  -9.476  1.00  0.00    -0.493 OA
ATOM     33 C26  MOL A   1      16.635 -19.379  -9.934  1.00  0.00     0.078 C 
ENDBRANCH  24  32
ENDBRANCH  18  19
ENDBRANCH  17  18
ENDBRANCH  15  17
ENDBRANCH   8  14
ENDBRANCH   1   8
TORSDOF 10
ENDMDL
MODEL 546
REMARK VINA RESULT:    -6.801      8.107     12.220
REMARK INTER + INTRA:         -11.825
REMARK INTER:                  -9.892
REMARK INTRA:                  -1.933
REMARK UNBOUND:                -1.048
REMARK  10 active torsions:
REMARK  status: ('A' for Active; 'I' for Inactive)
REMARK   1   A    between atoms:  C27_1   and   C6_8  
REMARK   2   A    between atoms:  C6_8    and   C5_9  
REMARK   3   A    between atoms:  C5_9    and   C3_12 
REMARK   4   A    between atoms:  C6_8    and   N7_14 
REMARK   5   A    between atoms:  C8_15   and  C10_17 
REMARK   6   A    between atoms: C10_17   and  O11_18 
REMARK   7   A    between atoms: O11_18   and  C12_19 
REMARK   8   A    between atoms: C13_20   and  C14_25 
REMARK   9   A    between atoms: C14_25   and  N15_26 
REMARK   10  A    between atoms: C24_24   and  O25_32 
ROOT
ATOM      1 C27  MOL A   1      17.662 -17.749  -8.695  1.00  0.00    -0.024 A 
ATOM      2 C28  MOL A   1      17.923 -17.293 -10.000  1.00  0.00    -0.057 A 
ATOM      3 C29  MOL A   1      18.944 -17.872 -10.761  1.00  0.00    -0.061 A 
ATOM      4 C30  MOL A   1      19.714 -18.909 -10.227  1.00  0.00    -0.048 A 
ATOM      5 C31  MOL A   1      19.463 -19.374  -8.931  1.00  0.00     0.018 A 
ATOM      6 Br32 MOL A   1      20.504 -20.808  -8.210  1.00  0.00    -0.051 Br
ATOM      7 C33  MOL A   1      18.446 -18.794  -8.166  1.00  0.00    -0.043 A 
ENDROOT
BRANCH   1   8
ATOM      8  C6  MOL A   1      16.604 -17.069  -7.853  1.00  0.00     0.063 C 
BRANCH   8   9
ATOM      9  C5  MOL A   1      16.807 -17.419  -6.368  1.00  0.00     0.051 C 
BRANCH   9  12
ATOM     10  C1  MOL A   1      19.371 -15.327  -4.314  1.00  0.00     0.006 C 
ATOM     11  N2  MOL A   1      18.736 -16.416  -5.041  1.00  0.00    -0.359 N 
ATOM     12  C3  MOL A   1      17.431 -16.280  -5.614  1.00  0.00     0.222 C 
ATOM     13  O4  MOL A   1      16.795 -15.198  -5.490  1.00  0.00    -0.275 OA
ENDBRANCH   9  12
ENDBRANCH   8   9
BRANCH   8  14
ATOM     14  N7  MOL A   1      15.265 -17.468  -8.299  1.00  0.00    -0.346 N 
ATOM     15  C8  MOL A   1      14.127 -16.612  -8.178  1.00  0.00     0.258 C 
ATOM     16  O9  MOL A   1      14.244 -15.468  -7.662  1.00  0.00    -0.271 OA
BRANCH  15  17
ATOM     17 C10  MOL A   1      12.785 -17.060  -8.675  1.00  0.00     0.167 C 
BRANCH  17  18
ATOM     18 O11  MOL A   1      12.155 -17.905  -7.715  1.00  0.00    -0.480 OA
BRANCH  18  19
ATOM     19 C12  MOL A   1      11.617 -19.148  -8.062  1.00  0.00     0.166 A 
ATOM     20 C13  MOL A   1      12.265 -20.351  -7.700  1.00  0.00     0.012 A 
ATOM     21 C21  MOL A   1      11.650 -21.578  -8.000  1.00  0.00    -0.054 A 
ATOM     22 C22  MOL A   1      10.437 -21.612  -8.689  1.00  0.00    -0.058 A 
ATOM     23 C23  MOL A   1       9.825 -20.425  -9.090  1.00  0.00    -0.016 A 
ATOM     24 C24  MOL A   1      10.413 -19.183  -8.783  1.00  0.00     0.161 A 
BRANCH  20  25
ATOM     25 C14  MOL A   1      13.606 -20.354  -6.999  1.00  0.00     0.028 C 
BRANCH  25  26
ATOM     26 N15  MOL A   1      14.415 -21.510  -7.438  1.00  0.00    -0.287 NA
ATOM     27 C16  MOL A   1      15.118 -22.140  -6.308  1.00  0.00     0.064 C 
ATOM     28 C17  MOL A   1      16.481 -21.748  -6.842  1.00  0.00     0.272 C 
ATOM     29 F18  MOL A   1      17.254 -22.825  -7.237  1.00  0.00    -0.204 F 
ATOM     30 F19  MOL A   1      17.153 -20.838  -6.042  1.00  0.00    -0.204 F 
ATOM     31 C20  MOL A   1      15.720 -21.099  -7.983  1.00  0.00     0.064 C 
ENDBRANCH  25  26
ENDBRANCH  20  25
BRANCH  24  32
ATOM     32 O25  MOL A   1       9.830 -17.967  -9.168  1.00  0.00    -0.493 OA
ATOM     33 C26  MOL A   1       8.638 -17.853  -9.939  1.00  0.00     0.078 C 
ENDBRANCH  24  32
ENDBRANCH  18  19
ENDBRANCH  17  18
ENDBRANCH  15  17
ENDBRANCH   8  14
ENDBRANCH   1   8
TORSDOF 10
ENDMDL
MODEL 547
REMARK VINA RESULT:    -6.800      8.566     12.559
REMARK INTER + INTRA:         -11.823
REMARK INTER:                 -10.130
REMARK INTRA:                  -1.693
REMARK UNBOUND:                -1.048
REMARK  10 active torsions:
REMARK  status: ('A' for Active; 'I' for Inactive)
REMARK   1   A    between atoms:  C27_1   and   C6_8  
REMARK   2   A    between atoms:  C6_8    and   C5_9  
REMARK   3   A    between atoms:  C5_9    and   C3_12 
REMARK   4   A    between atoms:  C6_8    and   N7_14 
REMARK   5   A    between atoms:  C8_15   and  C10_17 
REMARK   6   A    between atoms: C10_17   and  O11_18 
REMARK   7   A    between atoms: O11_18   and  C12_19 
REMARK   8   A    between atoms: C13_20   and  C14_25 
REMARK   9   A    between atoms: C14_25   and  N15_26 
REMARK   10  A    between atoms: C24_24   and  O25_32 
ROOT
ATOM      1 C27  MOL A   1      12.489 -18.216  -8.065  1.00  0.00    -0.024 A 
ATOM      2 C28  MOL A   1      11.513 -17.512  -7.336  1.00  0.00    -0.057 A 
ATOM      3 C29  MOL A   1      10.258 -17.255  -7.899  1.00  0.00    -0.061 A 
ATOM      4 C30  MOL A   1       9.966 -17.696  -9.192  1.00  0.00    -0.048 A 
ATOM      5 C31  MOL A   1      10.926 -18.401  -9.927  1.00  0.00     0.018 A 
ATOM      6 Br32 MOL A   1      10.517 -19.024 -11.689  1.00  0.00    -0.051 Br
ATOM      7 C33  MOL A   1      12.183 -18.655  -9.369  1.00  0.00    -0.043 A 
ENDROOT
BRANCH   1   8
ATOM      8  C6  MOL A   1      13.867 -18.427  -7.477  1.00  0.00     0.063 C 
BRANCH   8   9
ATOM      9  C5  MOL A   1      13.797 -19.436  -6.316  1.00  0.00     0.051 C 
BRANCH   9  12
ATOM     10  C1  MOL A   1      13.847 -22.920  -8.058  1.00  0.00     0.006 C 
ATOM     11  N2  MOL A   1      14.236 -21.597  -7.591  1.00  0.00    -0.359 N 
ATOM     12  C3  MOL A   1      13.363 -20.792  -6.792  1.00  0.00     0.222 C 
ATOM     13  O4  MOL A   1      12.219 -21.221  -6.477  1.00  0.00    -0.275 OA
ENDBRANCH   9  12
ENDBRANCH   8   9
BRANCH   8  14
ATOM     14  N7  MOL A   1      14.425 -17.150  -7.018  1.00  0.00    -0.346 N 
ATOM     15  C8  MOL A   1      15.613 -16.585  -7.577  1.00  0.00     0.258 C 
ATOM     16  O9  MOL A   1      16.233 -17.188  -8.492  1.00  0.00    -0.271 OA
BRANCH  15  17
ATOM     17 C10  MOL A   1      16.125 -15.263  -7.089  1.00  0.00     0.167 C 
BRANCH  17  18
ATOM     18 O11  MOL A   1      17.099 -15.453  -6.064  1.00  0.00    -0.480 OA
BRANCH  18  19
ATOM     19 C12  MOL A   1      16.885 -16.321  -4.990  1.00  0.00     0.166 A 
ATOM     20 C13  MOL A   1      17.575 -17.551  -4.895  1.00  0.00     0.012 A 
ATOM     21 C21  MOL A   1      17.389 -18.356  -3.759  1.00  0.00    -0.054 A 
ATOM     22 C22  MOL A   1      16.497 -17.971  -2.758  1.00  0.00    -0.058 A 
ATOM     23 C23  MOL A   1      15.779 -16.781  -2.877  1.00  0.00    -0.016 A 
ATOM     24 C24  MOL A   1      15.964 -15.949  -3.997  1.00  0.00     0.161 A 
BRANCH  20  25
ATOM     25 C14  MOL A   1      18.510 -18.026  -5.986  1.00  0.00     0.028 C 
BRANCH  25  26
ATOM     26 N15  MOL A   1      18.468 -19.499  -6.095  1.00  0.00    -0.287 NA
ATOM     27 C16  MOL A   1      19.497 -20.002  -7.021  1.00  0.00     0.064 C 
ATOM     28 C17  MOL A   1      18.464 -20.500  -8.014  1.00  0.00     0.272 C 
ATOM     29 F18  MOL A   1      18.432 -21.878  -8.139  1.00  0.00    -0.204 F 
ATOM     30 F19  MOL A   1      18.485 -19.827  -9.225  1.00  0.00    -0.204 F 
ATOM     31 C20  MOL A   1      17.436 -19.957  -7.041  1.00  0.00     0.064 C 
ENDBRANCH  25  26
ENDBRANCH  20  25
BRANCH  24  32
ATOM     32 O25  MOL A   1      15.262 -14.746  -4.155  1.00  0.00    -0.493 OA
ATOM     33 C26  MOL A   1      13.877 -14.657  -4.475  1.00  0.00     0.078 C 
ENDBRANCH  24  32
ENDBRANCH  18  19
ENDBRANCH  17  18
ENDBRANCH  15  17
ENDBRANCH   8  14
ENDBRANCH   1   8
TORSDOF 10
ENDMDL
MODEL 548
REMARK VINA RESULT:    -6.799     10.575     13.464
REMARK INTER + INTRA:         -11.822
REMARK INTER:                 -10.410
REMARK INTRA:                  -1.412
REMARK UNBOUND:                -1.048
REMARK  10 active torsions:
REMARK  status: ('A' for Active; 'I' for Inactive)
REMARK   1   A    between atoms:  C27_1   and   C6_8  
REMARK   2   A    between atoms:  C6_8    and   C5_9  
REMARK   3   A    between atoms:  C5_9    and   C3_12 
REMARK   4   A    between atoms:  C6_8    and   N7_14 
REMARK   5   A    between atoms:  C8_15   and  C10_17 
REMARK   6   A    between atoms: C10_17   and  O11_18 
REMARK   7   A    between atoms: O11_18   and  C12_19 
REMARK   8   A    between atoms: C13_20   and  C14_25 
REMARK   9   A    between atoms: C14_25   and  N15_26 
REMARK   10  A    between atoms: C24_24   and  O25_32 
ROOT
ATOM      1 C27  MOL A   1      15.517 -17.472  -1.558  1.00  0.00    -0.024 A 
ATOM      2 C28  MOL A   1      16.481 -16.711  -2.244  1.00  0.00    -0.057 A 
ATOM      3 C29  MOL A   1      16.720 -15.381  -1.882  1.00  0.00    -0.061 A 
ATOM      4 C30  MOL A   1      16.002 -14.799  -0.835  1.00  0.00    -0.048 A 
ATOM      5 C31  MOL A   1      15.042 -15.546  -0.142  1.00  0.00     0.018 A 
ATOM      6 Br32 MOL A   1      14.075 -14.754   1.306  1.00  0.00    -0.051 Br
ATOM      7 C33  MOL A   1      14.796 -16.874  -0.504  1.00  0.00    -0.043 A 
ENDROOT
BRANCH   1   8
ATOM      8  C6  MOL A   1      15.212 -18.887  -2.002  1.00  0.00     0.063 C 
BRANCH   8   9
ATOM      9  C5  MOL A   1      15.677 -19.888  -0.929  1.00  0.00     0.051 C 
BRANCH   9  12
ATOM     10  C1  MOL A   1      12.639 -20.288   1.476  1.00  0.00     0.006 C 
ATOM     11  N2  MOL A   1      13.778 -19.731   0.762  1.00  0.00    -0.359 N 
ATOM     12  C3  MOL A   1      14.512 -20.495  -0.201  1.00  0.00     0.222 C 
ATOM     13  O4  MOL A   1      14.182 -21.687  -0.447  1.00  0.00    -0.275 OA
ENDBRANCH   9  12
ENDBRANCH   8   9
BRANCH   8  14
ATOM     14  N7  MOL A   1      15.862 -19.167  -3.287  1.00  0.00    -0.346 N 
ATOM     15  C8  MOL A   1      15.284 -20.029  -4.269  1.00  0.00     0.258 C 
ATOM     16  O9  MOL A   1      14.179 -20.592  -4.049  1.00  0.00    -0.271 OA
BRANCH  15  17
ATOM     17 C10  MOL A   1      15.979 -20.261  -5.577  1.00  0.00     0.167 C 
BRANCH  17  18
ATOM     18 O11  MOL A   1      16.863 -19.182  -5.871  1.00  0.00    -0.480 OA
BRANCH  18  19
ATOM     19 C12  MOL A   1      17.180 -18.819  -7.183  1.00  0.00     0.166 A 
ATOM     20 C13  MOL A   1      16.346 -17.949  -7.923  1.00  0.00     0.012 A 
ATOM     21 C21  MOL A   1      16.744 -17.548  -9.209  1.00  0.00    -0.054 A 
ATOM     22 C22  MOL A   1      17.922 -18.040  -9.771  1.00  0.00    -0.058 A 
ATOM     23 C23  MOL A   1      18.717 -18.938  -9.059  1.00  0.00    -0.016 A 
ATOM     24 C24  MOL A   1      18.350 -19.338  -7.761  1.00  0.00     0.161 A 
BRANCH  20  25
ATOM     25 C14  MOL A   1      15.035 -17.437  -7.367  1.00  0.00     0.028 C 
BRANCH  25  26
ATOM     26 N15  MOL A   1      15.205 -16.078  -6.815  1.00  0.00    -0.287 NA
ATOM     27 C16  MOL A   1      14.487 -15.918  -5.539  1.00  0.00     0.064 C 
ATOM     28 C17  MOL A   1      13.519 -14.909  -6.125  1.00  0.00     0.272 C 
ATOM     29 F18  MOL A   1      13.656 -13.637  -5.599  1.00  0.00    -0.204 F 
ATOM     30 F19  MOL A   1      12.209 -15.358  -6.176  1.00  0.00    -0.204 F 
ATOM     31 C20  MOL A   1      14.275 -15.111  -7.424  1.00  0.00     0.064 C 
ENDBRANCH  25  26
ENDBRANCH  20  25
BRANCH  24  32
ATOM     32 O25  MOL A   1      19.121 -20.239  -7.013  1.00  0.00    -0.493 OA
ATOM     33 C26  MOL A   1      20.269 -20.921  -7.506  1.00  0.00     0.078 C 
ENDBRANCH  24  32
ENDBRANCH  18  19
ENDBRANCH  17  18
ENDBRANCH  15  17
ENDBRANCH   8  14
ENDBRANCH   1   8
TORSDOF 10
ENDMDL
MODEL 549
REMARK VINA RESULT:    -6.798     10.502     12.879
REMARK INTER + INTRA:         -11.820
REMARK INTER:                  -9.938
REMARK INTRA:                  -1.882
REMARK UNBOUND:                -1.048
REMARK  10 active torsions:
REMARK  status: ('A' for Active; 'I' for Inactive)
REMARK   1   A    between atoms:  C27_1   and   C6_8  
REMARK   2   A    between atoms:  C6_8    and   C5_9  
REMARK   3   A    between atoms:  C5_9    and   C3_12 
REMARK   4   A    between atoms:  C6_8    and   N7_14 
REMARK   5   A    between atoms:  C8_15   and  C10_17 
REMARK   6   A    between atoms: C10_17   and  O11_18 
REMARK   7   A    between atoms: O11_18   and  C12_19 
REMARK   8   A    between atoms: C13_20   and  C14_25 
REMARK   9   A    between atoms: C14_25   and  N15_26 
REMARK   10  A    between atoms: C24_24   and  O25_32 
ROOT
ATOM      1 C27  MOL A   1      15.156 -18.693  -6.899  1.00  0.00    -0.024 A 
ATOM      2 C28  MOL A   1      13.832 -18.755  -7.370  1.00  0.00    -0.057 A 
ATOM      3 C29  MOL A   1      13.242 -17.639  -7.972  1.00  0.00    -0.061 A 
ATOM      4 C30  MOL A   1      13.966 -16.451  -8.109  1.00  0.00    -0.048 A 
ATOM      5 C31  MOL A   1      15.285 -16.377  -7.648  1.00  0.00     0.018 A 
ATOM      6 Br32 MOL A   1      16.282 -14.758  -7.857  1.00  0.00    -0.051 Br
ATOM      7 C33  MOL A   1      15.877 -17.489  -7.041  1.00  0.00    -0.043 A 
ENDROOT
BRANCH   1   8
ATOM      8  C6  MOL A   1      15.763 -19.881  -6.185  1.00  0.00     0.063 C 
BRANCH   8   9
ATOM      9  C5  MOL A   1      15.658 -21.138  -7.068  1.00  0.00     0.051 C 
BRANCH   9  12
ATOM     10  C1  MOL A   1      18.821 -23.392  -7.361  1.00  0.00     0.006 C 
ATOM     11  N2  MOL A   1      17.516 -22.877  -6.973  1.00  0.00    -0.359 N 
ATOM     12  C3  MOL A   1      17.013 -21.636  -7.479  1.00  0.00     0.222 C 
ATOM     13  O4  MOL A   1      17.707 -20.952  -8.281  1.00  0.00    -0.275 OA
ENDBRANCH   9  12
ENDBRANCH   8   9
BRANCH   8  14
ATOM     14  N7  MOL A   1      15.092 -20.097  -4.898  1.00  0.00    -0.346 N 
ATOM     15  C8  MOL A   1      15.713 -19.793  -3.647  1.00  0.00     0.258 C 
ATOM     16  O9  MOL A   1      16.884 -19.331  -3.614  1.00  0.00    -0.271 OA
BRANCH  15  17
ATOM     17 C10  MOL A   1      14.972 -20.009  -2.361  1.00  0.00     0.167 C 
BRANCH  17  18
ATOM     18 O11  MOL A   1      15.605 -19.303  -1.297  1.00  0.00    -0.480 OA
BRANCH  18  19
ATOM     19 C12  MOL A   1      14.875 -18.585  -0.346  1.00  0.00     0.166 A 
ATOM     20 C13  MOL A   1      14.755 -17.179  -0.425  1.00  0.00     0.012 A 
ATOM     21 C21  MOL A   1      13.946 -16.506   0.507  1.00  0.00    -0.054 A 
ATOM     22 C22  MOL A   1      13.306 -17.210   1.527  1.00  0.00    -0.058 A 
ATOM     23 C23  MOL A   1      13.466 -18.592   1.633  1.00  0.00    -0.016 A 
ATOM     24 C24  MOL A   1      14.255 -19.289   0.700  1.00  0.00     0.161 A 
BRANCH  20  25
ATOM     25 C14  MOL A   1      15.476 -16.376  -1.485  1.00  0.00     0.028 C 
BRANCH  25  26
ATOM     26 N15  MOL A   1      14.727 -16.412  -2.757  1.00  0.00    -0.287 NA
ATOM     27 C16  MOL A   1      15.451 -15.711  -3.832  1.00  0.00     0.064 C 
ATOM     28 C17  MOL A   1      14.396 -14.627  -3.936  1.00  0.00     0.272 C 
ATOM     29 F18  MOL A   1      13.703 -14.640  -5.134  1.00  0.00    -0.204 F 
ATOM     30 F19  MOL A   1      14.848 -13.372  -3.561  1.00  0.00    -0.204 F 
ATOM     31 C20  MOL A   1      13.688 -15.370  -2.820  1.00  0.00     0.064 C 
ENDBRANCH  25  26
ENDBRANCH  20  25
BRANCH  24  32
ATOM     32 O25  MOL A   1      14.442 -20.677   0.772  1.00  0.00    -0.493 OA
ATOM     33 C26  MOL A   1      13.412 -21.640   0.575  1.00  0.00     0.078 C 
ENDBRANCH  24  32
ENDBRANCH  18  19
ENDBRANCH  17  18
ENDBRANCH  15  17
ENDBRANCH   8  14
ENDBRANCH   1   8
TORSDOF 10
ENDMDL
MODEL 550
REMARK VINA RESULT:    -6.797      7.694     11.258
REMARK INTER + INTRA:         -11.819
REMARK INTER:                 -11.136
REMARK INTRA:                  -0.683
REMARK UNBOUND:                -1.048
REMARK  10 active torsions:
REMARK  status: ('A' for Active; 'I' for Inactive)
REMARK   1   A    between atoms:  C27_1   and   C6_8  
REMARK   2   A    between atoms:  C6_8    and   C5_9  
REMARK   3   A    between atoms:  C5_9    and   C3_12 
REMARK   4   A    between atoms:  C6_8    and   N7_14 
REMARK   5   A    between atoms:  C8_15   and  C10_17 
REMARK   6   A    between atoms: C10_17   and  O11_18 
REMARK   7   A    between atoms: O11_18   and  C12_19 
REMARK   8   A    between atoms: C13_20   and  C14_25 
REMARK   9   A    between atoms: C14_25   and  N15_26 
REMARK   10  A    between atoms: C24_24   and  O25_32 
ROOT
ATOM      1 C27  MOL A   1      17.792 -18.818  -5.081  1.00  0.00    -0.024 A 
ATOM      2 C28  MOL A   1      18.550 -17.672  -5.382  1.00  0.00    -0.057 A 
ATOM      3 C29  MOL A   1      18.502 -16.552  -4.545  1.00  0.00    -0.061 A 
ATOM      4 C30  MOL A   1      17.699 -16.565  -3.401  1.00  0.00    -0.048 A 
ATOM      5 C31  MOL A   1      16.943 -17.700  -3.088  1.00  0.00     0.018 A 
ATOM      6 Br32 MOL A   1      15.860 -17.725  -1.511  1.00  0.00    -0.051 Br
ATOM      7 C33  MOL A   1      16.984 -18.820  -3.926  1.00  0.00    -0.043 A 
ENDROOT
BRANCH   1   8
ATOM      8  C6  MOL A   1      17.793 -19.998  -6.030  1.00  0.00     0.063 C 
BRANCH   8   9
ATOM      9  C5  MOL A   1      18.894 -19.820  -7.090  1.00  0.00     0.051 C 
BRANCH   9  12
ATOM     10  C1  MOL A   1      19.448 -23.537  -8.116  1.00  0.00     0.006 C 
ATOM     11  N2  MOL A   1      19.303 -22.323  -7.325  1.00  0.00    -0.359 N 
ATOM     12  C3  MOL A   1      19.050 -21.052  -7.934  1.00  0.00     0.222 C 
ATOM     13  O4  MOL A   1      18.951 -20.960  -9.188  1.00  0.00    -0.275 OA
ENDBRANCH   9  12
ENDBRANCH   8   9
BRANCH   8  14
ATOM     14  N7  MOL A   1      16.479 -20.138  -6.668  1.00  0.00    -0.346 N 
ATOM     15  C8  MOL A   1      16.018 -19.243  -7.682  1.00  0.00     0.258 C 
ATOM     16  O9  MOL A   1      16.740 -18.282  -8.058  1.00  0.00    -0.271 OA
BRANCH  15  17
ATOM     17 C10  MOL A   1      14.677 -19.447  -8.321  1.00  0.00     0.167 C 
BRANCH  17  18
ATOM     18 O11  MOL A   1      14.155 -18.208  -8.793  1.00  0.00    -0.480 OA
BRANCH  18  19
ATOM     19 C12  MOL A   1      13.182 -17.496  -8.087  1.00  0.00     0.166 A 
ATOM     20 C13  MOL A   1      11.840 -17.938  -8.044  1.00  0.00     0.012 A 
ATOM     21 C21  MOL A   1      10.912 -17.236  -7.257  1.00  0.00    -0.054 A 
ATOM     22 C22  MOL A   1      11.296 -16.087  -6.565  1.00  0.00    -0.058 A 
ATOM     23 C23  MOL A   1      12.609 -15.624  -6.650  1.00  0.00    -0.016 A 
ATOM     24 C24  MOL A   1      13.561 -16.322  -7.415  1.00  0.00     0.161 A 
BRANCH  20  25
ATOM     25 C14  MOL A   1      11.374 -19.148  -8.823  1.00  0.00     0.028 C 
BRANCH  25  26
ATOM     26 N15  MOL A   1       9.983 -18.962  -9.283  1.00  0.00    -0.287 NA
ATOM     27 C16  MOL A   1       9.190 -20.192  -9.123  1.00  0.00     0.064 C 
ATOM     28 C17  MOL A   1       9.026 -20.368 -10.620  1.00  0.00     0.272 C 
ATOM     29 F18  MOL A   1       7.722 -20.216 -11.057  1.00  0.00    -0.204 F 
ATOM     30 F19  MOL A   1       9.658 -21.494 -11.121  1.00  0.00    -0.204 F 
ATOM     31 C20  MOL A   1       9.857 -19.106 -10.744  1.00  0.00     0.064 C 
ENDBRANCH  25  26
ENDBRANCH  20  25
BRANCH  24  32
ATOM     32 O25  MOL A   1      14.890 -15.889  -7.527  1.00  0.00    -0.493 OA
ATOM     33 C26  MOL A   1      15.282 -14.537  -7.739  1.00  0.00     0.078 C 
ENDBRANCH  24  32
ENDBRANCH  18  19
ENDBRANCH  17  18
ENDBRANCH  15  17
ENDBRANCH   8  14
ENDBRANCH   1   8
TORSDOF 10
ENDMDL
MODEL 551
REMARK VINA RESULT:    -6.796      6.226      9.237
REMARK INTER + INTRA:         -11.817
REMARK INTER:                 -10.862
REMARK INTRA:                  -0.955
REMARK UNBOUND:                -1.048
REMARK  10 active torsions:
REMARK  status: ('A' for Active; 'I' for Inactive)
REMARK   1   A    between atoms:  C27_1   and   C6_8  
REMARK   2   A    between atoms:  C6_8    and   C5_9  
REMARK   3   A    between atoms:  C5_9    and   C3_12 
REMARK   4   A    between atoms:  C6_8    and   N7_14 
REMARK   5   A    between atoms:  C8_15   and  C10_17 
REMARK   6   A    between atoms: C10_17   and  O11_18 
REMARK   7   A    between atoms: O11_18   and  C12_19 
REMARK   8   A    between atoms: C13_20   and  C14_25 
REMARK   9   A    between atoms: C14_25   and  N15_26 
REMARK   10  A    between atoms: C24_24   and  O25_32 
ROOT
ATOM      1 C27  MOL A   1      15.478 -18.508  -8.059  1.00  0.00    -0.024 A 
ATOM      2 C28  MOL A   1      15.350 -17.401  -7.201  1.00  0.00    -0.057 A 
ATOM      3 C29  MOL A   1      16.098 -16.240  -7.426  1.00  0.00    -0.061 A 
ATOM      4 C30  MOL A   1      16.981 -16.174  -8.507  1.00  0.00    -0.048 A 
ATOM      5 C31  MOL A   1      17.116 -17.267  -9.371  1.00  0.00     0.018 A 
ATOM      6 Br32 MOL A   1      18.308 -17.167 -10.864  1.00  0.00    -0.051 Br
ATOM      7 C33  MOL A   1      16.373 -18.430  -9.146  1.00  0.00    -0.043 A 
ENDROOT
BRANCH   1   8
ATOM      8  C6  MOL A   1      14.720 -19.784  -7.767  1.00  0.00     0.063 C 
BRANCH   8   9
ATOM      9  C5  MOL A   1      15.643 -21.001  -7.957  1.00  0.00     0.051 C 
BRANCH   9  12
ATOM     10  C1  MOL A   1      13.547 -23.905  -6.426  1.00  0.00     0.006 C 
ATOM     11  N2  MOL A   1      14.295 -22.666  -6.579  1.00  0.00    -0.359 N 
ATOM     12  C3  MOL A   1      14.887 -22.292  -7.828  1.00  0.00     0.222 C 
ATOM     13  O4  MOL A   1      14.773 -23.046  -8.833  1.00  0.00    -0.275 OA
ENDBRANCH   9  12
ENDBRANCH   8   9
BRANCH   8  14
ATOM     14  N7  MOL A   1      13.544 -19.887  -8.638  1.00  0.00    -0.346 N 
ATOM     15  C8  MOL A   1      12.222 -20.072  -8.127  1.00  0.00     0.258 C 
ATOM     16  O9  MOL A   1      12.028 -20.163  -6.886  1.00  0.00    -0.271 OA
BRANCH  15  17
ATOM     17 C10  MOL A   1      11.051 -20.145  -9.060  1.00  0.00     0.167 C 
BRANCH  17  18
ATOM     18 O11  MOL A   1       9.868 -19.684  -8.413  1.00  0.00    -0.480 OA
BRANCH  18  19
ATOM     19 C12  MOL A   1       9.146 -18.584  -8.883  1.00  0.00     0.166 A 
ATOM     20 C13  MOL A   1       8.257 -18.705  -9.976  1.00  0.00     0.012 A 
ATOM     21 C21  MOL A   1       7.493 -17.593 -10.365  1.00  0.00    -0.054 A 
ATOM     22 C22  MOL A   1       7.642 -16.368  -9.713  1.00  0.00    -0.058 A 
ATOM     23 C23  MOL A   1       8.556 -16.238  -8.668  1.00  0.00    -0.016 A 
ATOM     24 C24  MOL A   1       9.319 -17.343  -8.248  1.00  0.00     0.161 A 
BRANCH  20  25
ATOM     25 C14  MOL A   1       8.108 -20.002 -10.741  1.00  0.00     0.028 C 
BRANCH  25  26
ATOM     26 N15  MOL A   1       6.884 -20.712 -10.317  1.00  0.00    -0.287 NA
ATOM     27 C16  MOL A   1       6.233 -20.039  -9.180  1.00  0.00     0.064 C 
ATOM     28 C17  MOL A   1       6.508 -21.197  -8.242  1.00  0.00     0.272 C 
ATOM     29 F18  MOL A   1       5.366 -21.857  -7.823  1.00  0.00    -0.204 F 
ATOM     30 F19  MOL A   1       7.386 -20.887  -7.216  1.00  0.00    -0.204 F 
ATOM     31 C20  MOL A   1       7.181 -21.852  -9.432  1.00  0.00     0.064 C 
ENDBRANCH  25  26
ENDBRANCH  20  25
BRANCH  24  32
ATOM     32 O25  MOL A   1      10.249 -17.253  -7.202  1.00  0.00    -0.493 OA
ATOM     33 C26  MOL A   1      11.556 -16.704  -7.331  1.00  0.00     0.078 C 
ENDBRANCH  24  32
ENDBRANCH  18  19
ENDBRANCH  17  18
ENDBRANCH  15  17
ENDBRANCH   8  14
ENDBRANCH   1   8
TORSDOF 10
ENDMDL
MODEL 552
REMARK VINA RESULT:    -6.795      8.422     11.525
REMARK INTER + INTRA:         -11.816
REMARK INTER:                 -10.107
REMARK INTRA:                  -1.709
REMARK UNBOUND:                -1.048
REMARK  10 active torsions:
REMARK  status: ('A' for Active; 'I' for Inactive)
REMARK   1   A    between atoms:  C27_1   and   C6_8  
REMARK   2   A    between atoms:  C6_8    and   C5_9  
REMARK   3   A    between atoms:  C5_9    and   C3_12 
REMARK   4   A    between atoms:  C6_8    and   N7_14 
REMARK   5   A    between atoms:  C8_15   and  C10_17 
REMARK   6   A    between atoms: C10_17   and  O11_18 
REMARK   7   A    between atoms: O11_18   and  C12_19 
REMARK   8   A    between atoms: C13_20   and  C14_25 
REMARK   9   A    between atoms: C14_25   and  N15_26 
REMARK   10  A    between atoms: C24_24   and  O25_32 
ROOT
ATOM      1 C27  MOL A   1      16.811 -19.612  -5.188  1.00  0.00    -0.024 A 
ATOM      2 C28  MOL A   1      17.855 -18.685  -5.362  1.00  0.00    -0.057 A 
ATOM      3 C29  MOL A   1      18.042 -17.648  -4.441  1.00  0.00    -0.061 A 
ATOM      4 C30  MOL A   1      17.189 -17.526  -3.341  1.00  0.00    -0.048 A 
ATOM      5 C31  MOL A   1      16.149 -18.444  -3.154  1.00  0.00     0.018 A 
ATOM      6 Br32 MOL A   1      14.996 -18.289  -1.635  1.00  0.00    -0.051 Br
ATOM      7 C33  MOL A   1      15.956 -19.478  -4.076  1.00  0.00    -0.043 A 
ENDROOT
BRANCH   1   8
ATOM      8  C6  MOL A   1      16.572 -20.686  -6.227  1.00  0.00     0.063 C 
BRANCH   8   9
ATOM      9  C5  MOL A   1      17.479 -20.451  -7.448  1.00  0.00     0.051 C 
BRANCH   9  12
ATOM     10  C1  MOL A   1      19.338 -23.818  -8.066  1.00  0.00     0.006 C 
ATOM     11  N2  MOL A   1      18.296 -22.806  -7.971  1.00  0.00    -0.359 N 
ATOM     12  C3  MOL A   1      18.575 -21.474  -7.526  1.00  0.00     0.222 C 
ATOM     13  O4  MOL A   1      19.749 -21.151  -7.197  1.00  0.00    -0.275 OA
ENDBRANCH   9  12
ENDBRANCH   8   9
BRANCH   8  14
ATOM     14  N7  MOL A   1      15.161 -20.701  -6.627  1.00  0.00    -0.346 N 
ATOM     15  C8  MOL A   1      14.400 -21.907  -6.721  1.00  0.00     0.258 C 
ATOM     16  O9  MOL A   1      14.937 -23.018  -6.465  1.00  0.00    -0.271 OA
BRANCH  15  17
ATOM     17 C10  MOL A   1      12.953 -21.863  -7.109  1.00  0.00     0.167 C 
BRANCH  17  18
ATOM     18 O11  MOL A   1      12.434 -20.544  -6.952  1.00  0.00    -0.480 OA
BRANCH  18  19
ATOM     19 C12  MOL A   1      11.887 -19.830  -8.022  1.00  0.00     0.166 A 
ATOM     20 C13  MOL A   1      12.328 -18.523  -8.331  1.00  0.00     0.012 A 
ATOM     21 C21  MOL A   1      11.807 -17.873  -9.462  1.00  0.00    -0.054 A 
ATOM     22 C22  MOL A   1      10.831 -18.489 -10.245  1.00  0.00    -0.058 A 
ATOM     23 C23  MOL A   1      10.360 -19.758  -9.909  1.00  0.00    -0.016 A 
ATOM     24 C24  MOL A   1      10.881 -20.437  -8.792  1.00  0.00     0.161 A 
BRANCH  20  25
ATOM     25 C14  MOL A   1      13.347 -17.803  -7.475  1.00  0.00     0.028 C 
BRANCH  25  26
ATOM     26 N15  MOL A   1      14.207 -16.941  -8.311  1.00  0.00    -0.287 NA
ATOM     27 C16  MOL A   1      15.632 -17.121  -7.988  1.00  0.00     0.064 C 
ATOM     28 C17  MOL A   1      15.764 -15.709  -7.453  1.00  0.00     0.272 C 
ATOM     29 F18  MOL A   1      16.585 -14.900  -8.219  1.00  0.00    -0.204 F 
ATOM     30 F19  MOL A   1      16.027 -15.649  -6.094  1.00  0.00    -0.204 F 
ATOM     31 C20  MOL A   1      14.293 -15.567  -7.789  1.00  0.00     0.064 C 
ENDBRANCH  25  26
ENDBRANCH  20  25
BRANCH  24  32
ATOM     32 O25  MOL A   1      10.435 -21.713  -8.420  1.00  0.00    -0.493 OA
ATOM     33 C26  MOL A   1      10.081 -22.742  -9.338  1.00  0.00     0.078 C 
ENDBRANCH  24  32
ENDBRANCH  18  19
ENDBRANCH  17  18
ENDBRANCH  15  17
ENDBRANCH   8  14
ENDBRANCH   1   8
TORSDOF 10
ENDMDL
MODEL 553
REMARK VINA RESULT:    -6.789      5.664     10.645
REMARK INTER + INTRA:         -11.806
REMARK INTER:                 -10.611
REMARK INTRA:                  -1.195
REMARK UNBOUND:                -1.048
REMARK  10 active torsions:
REMARK  status: ('A' for Active; 'I' for Inactive)
REMARK   1   A    between atoms:  C27_1   and   C6_8  
REMARK   2   A    between atoms:  C6_8    and   C5_9  
REMARK   3   A    between atoms:  C5_9    and   C3_12 
REMARK   4   A    between atoms:  C6_8    and   N7_14 
REMARK   5   A    between atoms:  C8_15   and  C10_17 
REMARK   6   A    between atoms: C10_17   and  O11_18 
REMARK   7   A    between atoms: O11_18   and  C12_19 
REMARK   8   A    between atoms: C13_20   and  C14_25 
REMARK   9   A    between atoms: C14_25   and  N15_26 
REMARK   10  A    between atoms: C24_24   and  O25_32 
ROOT
ATOM      1 C27  MOL A   1       8.843 -20.478  -9.128  1.00  0.00    -0.024 A 
ATOM      2 C28  MOL A   1       7.490 -20.790  -8.900  1.00  0.00    -0.057 A 
ATOM      3 C29  MOL A   1       7.006 -22.076  -9.166  1.00  0.00    -0.061 A 
ATOM      4 C30  MOL A   1       7.866 -23.060  -9.662  1.00  0.00    -0.048 A 
ATOM      5 C31  MOL A   1       9.214 -22.764  -9.890  1.00  0.00     0.018 A 
ATOM      6 Br32 MOL A   1      10.395 -24.119 -10.547  1.00  0.00    -0.051 Br
ATOM      7 C33  MOL A   1       9.700 -21.479  -9.630  1.00  0.00    -0.043 A 
ENDROOT
BRANCH   1   8
ATOM      8  C6  MOL A   1       9.342 -19.067  -8.907  1.00  0.00     0.063 C 
BRANCH   8   9
ATOM      9  C5  MOL A   1       8.846 -18.149 -10.038  1.00  0.00     0.051 C 
BRANCH   9  12
ATOM     10  C1  MOL A   1       6.154 -16.462  -7.785  1.00  0.00     0.006 C 
ATOM     11  N2  MOL A   1       7.152 -17.391  -8.294  1.00  0.00    -0.359 N 
ATOM     12  C3  MOL A   1       7.813 -17.177  -9.545  1.00  0.00     0.222 C 
ATOM     13  O4  MOL A   1       7.533 -16.164 -10.243  1.00  0.00    -0.275 OA
ENDBRANCH   9  12
ENDBRANCH   8   9
BRANCH   8  14
ATOM     14  N7  MOL A   1      10.807 -19.051  -8.835  1.00  0.00    -0.346 N 
ATOM     15  C8  MOL A   1      11.524 -18.195  -7.944  1.00  0.00     0.258 C 
ATOM     16  O9  MOL A   1      10.903 -17.404  -7.185  1.00  0.00    -0.271 OA
BRANCH  15  17
ATOM     17 C10  MOL A   1      13.022 -18.238  -7.891  1.00  0.00     0.167 C 
BRANCH  17  18
ATOM     18 O11  MOL A   1      13.461 -18.970  -6.749  1.00  0.00    -0.480 OA
BRANCH  18  19
ATOM     19 C12  MOL A   1      14.609 -19.766  -6.775  1.00  0.00     0.166 A 
ATOM     20 C13  MOL A   1      15.846 -19.281  -6.291  1.00  0.00     0.012 A 
ATOM     21 C21  MOL A   1      16.956 -20.142  -6.263  1.00  0.00    -0.054 A 
ATOM     22 C22  MOL A   1      16.854 -21.444  -6.751  1.00  0.00    -0.058 A 
ATOM     23 C23  MOL A   1      15.646 -21.905  -7.275  1.00  0.00    -0.016 A 
ATOM     24 C24  MOL A   1      14.515 -21.067  -7.295  1.00  0.00     0.161 A 
BRANCH  20  25
ATOM     25 C14  MOL A   1      16.008 -17.858  -5.803  1.00  0.00     0.028 C 
BRANCH  25  26
ATOM     26 N15  MOL A   1      15.830 -16.907  -6.919  1.00  0.00    -0.287 NA
ATOM     27 C16  MOL A   1      17.124 -16.482  -7.480  1.00  0.00     0.064 C 
ATOM     28 C17  MOL A   1      16.935 -15.049  -7.021  1.00  0.00     0.272 C 
ATOM     29 F18  MOL A   1      16.788 -14.147  -8.060  1.00  0.00    -0.204 F 
ATOM     30 F19  MOL A   1      17.844 -14.649  -6.055  1.00  0.00    -0.204 F 
ATOM     31 C20  MOL A   1      15.616 -15.528  -6.446  1.00  0.00     0.064 C 
ENDBRANCH  25  26
ENDBRANCH  20  25
BRANCH  24  32
ATOM     32 O25  MOL A   1      13.283 -21.491  -7.814  1.00  0.00    -0.493 OA
ATOM     33 C26  MOL A   1      12.239 -22.071  -7.038  1.00  0.00     0.078 C 
ENDBRANCH  24  32
ENDBRANCH  18  19
ENDBRANCH  17  18
ENDBRANCH  15  17
ENDBRANCH   8  14
ENDBRANCH   1   8
TORSDOF 10
ENDMDL
MODEL 554
REMARK VINA RESULT:    -6.789     10.547     13.541
REMARK INTER + INTRA:         -11.806
REMARK INTER:                 -10.570
REMARK INTRA:                  -1.236
REMARK UNBOUND:                -1.048
REMARK  10 active torsions:
REMARK  status: ('A' for Active; 'I' for Inactive)
REMARK   1   A    between atoms:  C27_1   and   C6_8  
REMARK   2   A    between atoms:  C6_8    and   C5_9  
REMARK   3   A    between atoms:  C5_9    and   C3_12 
REMARK   4   A    between atoms:  C6_8    and   N7_14 
REMARK   5   A    between atoms:  C8_15   and  C10_17 
REMARK   6   A    between atoms: C10_17   and  O11_18 
REMARK   7   A    between atoms: O11_18   and  C12_19 
REMARK   8   A    between atoms: C13_20   and  C14_25 
REMARK   9   A    between atoms: C14_25   and  N15_26 
REMARK   10  A    between atoms: C24_24   and  O25_32 
ROOT
ATOM      1 C27  MOL A   1      15.686 -18.548  -0.388  1.00  0.00    -0.024 A 
ATOM      2 C28  MOL A   1      16.116 -18.067   0.862  1.00  0.00    -0.057 A 
ATOM      3 C29  MOL A   1      15.821 -18.775   2.032  1.00  0.00    -0.061 A 
ATOM      4 C30  MOL A   1      15.096 -19.968   1.966  1.00  0.00    -0.048 A 
ATOM      5 C31  MOL A   1      14.665 -20.459   0.729  1.00  0.00     0.018 A 
ATOM      6 Br32 MOL A   1      13.692 -22.104   0.638  1.00  0.00    -0.051 Br
ATOM      7 C33  MOL A   1      14.953 -19.752  -0.443  1.00  0.00    -0.043 A 
ENDROOT
BRANCH   1   8
ATOM      8  C6  MOL A   1      15.945 -17.740  -1.641  1.00  0.00     0.063 C 
BRANCH   8   9
ATOM      9  C5  MOL A   1      14.636 -17.098  -2.135  1.00  0.00     0.051 C 
BRANCH   9  12
ATOM     10  C1  MOL A   1      15.374 -13.694  -0.390  1.00  0.00     0.006 C 
ATOM     11  N2  MOL A   1      15.409 -15.104  -0.751  1.00  0.00    -0.359 N 
ATOM     12  C3  MOL A   1      14.569 -15.641  -1.778  1.00  0.00     0.222 C 
ATOM     13  O4  MOL A   1      13.766 -14.889  -2.396  1.00  0.00    -0.275 OA
ENDBRANCH   9  12
ENDBRANCH   8   9
BRANCH   8  14
ATOM     14  N7  MOL A   1      16.528 -18.591  -2.684  1.00  0.00    -0.346 N 
ATOM     15  C8  MOL A   1      17.322 -18.067  -3.750  1.00  0.00     0.258 C 
ATOM     16  O9  MOL A   1      17.540 -16.829  -3.830  1.00  0.00    -0.271 OA
BRANCH  15  17
ATOM     17 C10  MOL A   1      17.916 -18.985  -4.775  1.00  0.00     0.167 C 
BRANCH  17  18
ATOM     18 O11  MOL A   1      17.005 -19.186  -5.853  1.00  0.00    -0.480 OA
BRANCH  18  19
ATOM     19 C12  MOL A   1      17.283 -18.749  -7.151  1.00  0.00     0.166 A 
ATOM     20 C13  MOL A   1      16.444 -17.818  -7.804  1.00  0.00     0.012 A 
ATOM     21 C21  MOL A   1      16.804 -17.346  -9.077  1.00  0.00    -0.054 A 
ATOM     22 C22  MOL A   1      17.950 -17.826  -9.712  1.00  0.00    -0.058 A 
ATOM     23 C23  MOL A   1      18.750 -18.782  -9.086  1.00  0.00    -0.016 A 
ATOM     24 C24  MOL A   1      18.420 -19.255  -7.802  1.00  0.00     0.161 A 
BRANCH  20  25
ATOM     25 C14  MOL A   1      15.166 -17.315  -7.170  1.00  0.00     0.028 C 
BRANCH  25  26
ATOM     26 N15  MOL A   1      15.273 -15.873  -6.866  1.00  0.00    -0.287 NA
ATOM     27 C16  MOL A   1      14.792 -15.569  -5.507  1.00  0.00     0.064 C 
ATOM     28 C17  MOL A   1      13.619 -14.760  -6.024  1.00  0.00     0.272 C 
ATOM     29 F18  MOL A   1      13.701 -13.411  -5.726  1.00  0.00    -0.204 F 
ATOM     30 F19  MOL A   1      12.386 -15.324  -5.743  1.00  0.00    -0.204 F 
ATOM     31 C20  MOL A   1      14.138 -15.106  -7.407  1.00  0.00     0.064 C 
ENDBRANCH  25  26
ENDBRANCH  20  25
BRANCH  24  32
ATOM     32 O25  MOL A   1      19.196 -20.217  -7.140  1.00  0.00    -0.493 OA
ATOM     33 C26  MOL A   1      19.129 -21.617  -7.388  1.00  0.00     0.078 C 
ENDBRANCH  24  32
ENDBRANCH  18  19
ENDBRANCH  17  18
ENDBRANCH  15  17
ENDBRANCH   8  14
ENDBRANCH   1   8
TORSDOF 10
ENDMDL
MODEL 555
REMARK VINA RESULT:    -6.787     10.406     14.039
REMARK INTER + INTRA:         -11.803
REMARK INTER:                 -10.889
REMARK INTRA:                  -0.914
REMARK UNBOUND:                -1.048
REMARK  10 active torsions:
REMARK  status: ('A' for Active; 'I' for Inactive)
REMARK   1   A    between atoms:  C27_1   and   C6_8  
REMARK   2   A    between atoms:  C6_8    and   C5_9  
REMARK   3   A    between atoms:  C5_9    and   C3_12 
REMARK   4   A    between atoms:  C6_8    and   N7_14 
REMARK   5   A    between atoms:  C8_15   and  C10_17 
REMARK   6   A    between atoms: C10_17   and  O11_18 
REMARK   7   A    between atoms: O11_18   and  C12_19 
REMARK   8   A    between atoms: C13_20   and  C14_25 
REMARK   9   A    between atoms: C14_25   and  N15_26 
REMARK   10  A    between atoms: C24_24   and  O25_32 
ROOT
ATOM      1 C27  MOL A   1      16.505 -14.625   0.088  1.00  0.00    -0.024 A 
ATOM      2 C28  MOL A   1      15.940 -14.431   1.361  1.00  0.00    -0.057 A 
ATOM      3 C29  MOL A   1      16.748 -14.074   2.447  1.00  0.00    -0.061 A 
ATOM      4 C30  MOL A   1      18.124 -13.908   2.272  1.00  0.00    -0.048 A 
ATOM      5 C31  MOL A   1      18.699 -14.094   1.010  1.00  0.00     0.018 A 
ATOM      6 Br32 MOL A   1      20.580 -13.844   0.767  1.00  0.00    -0.051 Br
ATOM      7 C33  MOL A   1      17.895 -14.456  -0.077  1.00  0.00    -0.043 A 
ENDROOT
BRANCH   1   8
ATOM      8  C6  MOL A   1      15.637 -15.081  -1.065  1.00  0.00     0.063 C 
BRANCH   8   9
ATOM      9  C5  MOL A   1      14.651 -16.162  -0.586  1.00  0.00     0.051 C 
BRANCH   9  12
ATOM     10  C1  MOL A   1      15.490 -19.754  -1.836  1.00  0.00     0.006 C 
ATOM     11  N2  MOL A   1      14.912 -18.423  -1.729  1.00  0.00    -0.359 N 
ATOM     12  C3  MOL A   1      15.257 -17.533  -0.662  1.00  0.00     0.222 C 
ATOM     13  O4  MOL A   1      16.079 -17.896   0.223  1.00  0.00    -0.275 OA
ENDBRANCH   9  12
ENDBRANCH   8   9
BRANCH   8  14
ATOM     14  N7  MOL A   1      16.470 -15.591  -2.159  1.00  0.00    -0.346 N 
ATOM     15  C8  MOL A   1      16.303 -15.170  -3.514  1.00  0.00     0.258 C 
ATOM     16  O9  MOL A   1      15.406 -14.338  -3.814  1.00  0.00    -0.271 OA
BRANCH  15  17
ATOM     17 C10  MOL A   1      17.200 -15.704  -4.590  1.00  0.00     0.167 C 
BRANCH  17  18
ATOM     18 O11  MOL A   1      16.502 -16.647  -5.400  1.00  0.00    -0.480 OA
BRANCH  18  19
ATOM     19 C12  MOL A   1      16.905 -16.947  -6.703  1.00  0.00     0.166 A 
ATOM     20 C13  MOL A   1      16.709 -16.028  -7.760  1.00  0.00     0.012 A 
ATOM     21 C21  MOL A   1      17.201 -16.338  -9.038  1.00  0.00    -0.054 A 
ATOM     22 C22  MOL A   1      17.834 -17.558  -9.277  1.00  0.00    -0.058 A 
ATOM     23 C23  MOL A   1      17.982 -18.485  -8.245  1.00  0.00    -0.016 A 
ATOM     24 C24  MOL A   1      17.515 -18.188  -6.951  1.00  0.00     0.161 A 
BRANCH  20  25
ATOM     25 C14  MOL A   1      15.981 -14.719  -7.551  1.00  0.00     0.028 C 
BRANCH  25  26
ATOM     26 N15  MOL A   1      14.558 -14.855  -7.925  1.00  0.00    -0.287 NA
ATOM     27 C16  MOL A   1      13.687 -14.891  -6.739  1.00  0.00     0.064 C 
ATOM     28 C17  MOL A   1      13.271 -16.326  -6.998  1.00  0.00     0.272 C 
ATOM     29 F18  MOL A   1      11.934 -16.465  -7.329  1.00  0.00    -0.204 F 
ATOM     30 F19  MOL A   1      13.705 -17.216  -6.029  1.00  0.00    -0.204 F 
ATOM     31 C20  MOL A   1      14.188 -16.253  -8.203  1.00  0.00     0.064 C 
ENDBRANCH  25  26
ENDBRANCH  20  25
BRANCH  24  32
ATOM     32 O25  MOL A   1      17.643 -19.092  -5.886  1.00  0.00    -0.493 OA
ATOM     33 C26  MOL A   1      16.705 -20.120  -5.585  1.00  0.00     0.078 C 
ENDBRANCH  24  32
ENDBRANCH  18  19
ENDBRANCH  17  18
ENDBRANCH  15  17
ENDBRANCH   8  14
ENDBRANCH   1   8
TORSDOF 10
ENDMDL
MODEL 556
REMARK VINA RESULT:    -6.787      7.290     11.207
REMARK INTER + INTRA:         -11.803
REMARK INTER:                 -10.524
REMARK INTRA:                  -1.279
REMARK UNBOUND:                -1.048
REMARK  10 active torsions:
REMARK  status: ('A' for Active; 'I' for Inactive)
REMARK   1   A    between atoms:  C27_1   and   C6_8  
REMARK   2   A    between atoms:  C6_8    and   C5_9  
REMARK   3   A    between atoms:  C5_9    and   C3_12 
REMARK   4   A    between atoms:  C6_8    and   N7_14 
REMARK   5   A    between atoms:  C8_15   and  C10_17 
REMARK   6   A    between atoms: C10_17   and  O11_18 
REMARK   7   A    between atoms: O11_18   and  C12_19 
REMARK   8   A    between atoms: C13_20   and  C14_25 
REMARK   9   A    between atoms: C14_25   and  N15_26 
REMARK   10  A    between atoms: C24_24   and  O25_32 
ROOT
ATOM      1 C27  MOL A   1       9.705 -20.961  -8.860  1.00  0.00    -0.024 A 
ATOM      2 C28  MOL A   1      10.192 -22.194  -9.329  1.00  0.00    -0.057 A 
ATOM      3 C29  MOL A   1       9.307 -23.185  -9.767  1.00  0.00    -0.061 A 
ATOM      4 C30  MOL A   1       7.929 -22.955  -9.741  1.00  0.00    -0.048 A 
ATOM      5 C31  MOL A   1       7.430 -21.732  -9.279  1.00  0.00     0.018 A 
ATOM      6 Br32 MOL A   1       5.545 -21.410  -9.264  1.00  0.00    -0.051 Br
ATOM      7 C33  MOL A   1       8.312 -20.741  -8.836  1.00  0.00    -0.043 A 
ENDROOT
BRANCH   1   8
ATOM      8  C6  MOL A   1      10.665 -19.923  -8.320  1.00  0.00     0.063 C 
BRANCH   8   9
ATOM      9  C5  MOL A   1      10.512 -18.606  -9.102  1.00  0.00     0.051 C 
BRANCH   9  12
ATOM     10  C1  MOL A   1      11.523 -15.937  -6.452  1.00  0.00     0.006 C 
ATOM     11  N2  MOL A   1      11.556 -17.084  -7.348  1.00  0.00    -0.359 N 
ATOM     12  C3  MOL A   1      10.442 -17.423  -8.181  1.00  0.00     0.222 C 
ATOM     13  O4  MOL A   1       9.392 -16.725  -8.148  1.00  0.00    -0.275 OA
ENDBRANCH   9  12
ENDBRANCH   8   9
BRANCH   8  14
ATOM     14  N7  MOL A   1      12.044 -20.415  -8.401  1.00  0.00    -0.346 N 
ATOM     15  C8  MOL A   1      12.844 -20.657  -7.242  1.00  0.00     0.258 C 
ATOM     16  O9  MOL A   1      12.379 -20.438  -6.092  1.00  0.00    -0.271 OA
BRANCH  15  17
ATOM     17 C10  MOL A   1      14.240 -21.185  -7.381  1.00  0.00     0.167 C 
BRANCH  17  18
ATOM     18 O11  MOL A   1      15.109 -20.173  -7.886  1.00  0.00    -0.480 OA
BRANCH  18  19
ATOM     19 C12  MOL A   1      16.287 -19.812  -7.227  1.00  0.00     0.166 A 
ATOM     20 C13  MOL A   1      16.327 -18.697  -6.359  1.00  0.00     0.012 A 
ATOM     21 C21  MOL A   1      17.511 -18.417  -5.656  1.00  0.00    -0.054 A 
ATOM     22 C22  MOL A   1      18.650 -19.199  -5.848  1.00  0.00    -0.058 A 
ATOM     23 C23  MOL A   1      18.623 -20.268  -6.743  1.00  0.00    -0.016 A 
ATOM     24 C24  MOL A   1      17.443 -20.580  -7.443  1.00  0.00     0.161 A 
BRANCH  20  25
ATOM     25 C14  MOL A   1      15.128 -17.794  -6.166  1.00  0.00     0.028 C 
BRANCH  25  26
ATOM     26 N15  MOL A   1      15.087 -16.760  -7.220  1.00  0.00    -0.287 NA
ATOM     27 C16  MOL A   1      16.406 -16.573  -7.847  1.00  0.00     0.064 C 
ATOM     28 C17  MOL A   1      16.544 -15.163  -7.308  1.00  0.00     0.272 C 
ATOM     29 F18  MOL A   1      16.527 -14.188  -8.290  1.00  0.00    -0.204 F 
ATOM     30 F19  MOL A   1      17.570 -15.016  -6.388  1.00  0.00    -0.204 F 
ATOM     31 C20  MOL A   1      15.190 -15.399  -6.667  1.00  0.00     0.064 C 
ENDBRANCH  25  26
ENDBRANCH  20  25
BRANCH  24  32
ATOM     32 O25  MOL A   1      17.375 -21.646  -8.352  1.00  0.00    -0.493 OA
ATOM     33 C26  MOL A   1      17.632 -21.532  -9.748  1.00  0.00     0.078 C 
ENDBRANCH  24  32
ENDBRANCH  18  19
ENDBRANCH  17  18
ENDBRANCH  15  17
ENDBRANCH   8  14
ENDBRANCH   1   8
TORSDOF 10
ENDMDL
