@<TRIPOS>MOLECULE
L3024_0_out.pdbqt
 33 35 0 0 0
SMALL
GASTEIGER

@<TRIPOS>ATOM
      1 C27         7.1100  -18.7970   -8.6150 C.ar    1  MOL1       -0.0240
      2 C28         6.3360  -19.9650   -8.4970 C.ar    1  MOL1       -0.0570
      3 C29         5.0770  -19.9210   -7.8890 C.ar    1  MOL1       -0.0610
      4 C30         4.5790  -18.7130   -7.3930 C.ar    1  MOL1       -0.0480
      5 C31         5.3380  -17.5430   -7.5070 C.ar    1  MOL1        0.0180
      6 Br32        4.6460  -15.8850   -6.8480 Br      1  MOL1       -0.0510
      7 C33         6.5990  -17.5840   -8.1100 C.ar    1  MOL1       -0.0430
      8  C6         8.5010  -18.8660   -9.2080 C.3     1  MOL1        0.0630
      9  C5         9.1780  -20.1910   -8.8110 C.3     1  MOL1        0.0510
     10  C1         9.8450  -23.3100  -11.0470 C.3     1  MOL1        0.0060
     11  N2         9.5650  -22.4620   -9.8970 N.am    1  MOL1       -0.3590
     12  C3         9.4780  -21.0380  -10.0140 C.2     1  MOL1        0.2220
     13  O4         9.6500  -20.4830  -11.1340 O.2     1  MOL1       -0.2750
     14  N7         9.3020  -17.7220   -8.7600 N.am    1  MOL1       -0.3460
     15  C8        10.3130  -17.8370   -7.7560 C.2     1  MOL1        0.2580
     16  O9        10.5410  -18.9490   -7.2090 O.2     1  MOL1       -0.2710
     17 C10        11.1220  -16.6410   -7.3540 C.3     1  MOL1        0.1670
     18 O11        12.3290  -17.0470   -6.7140 O.3     1  MOL1       -0.4800
     19 C12        13.5860  -16.6580   -7.1860 C.ar    1  MOL1        0.1660
     20 C13        14.3060  -17.4650   -8.0960 C.ar    1  MOL1        0.0120
     21 C21        15.5300  -16.9990   -8.6060 C.ar    1  MOL1       -0.0540
     22 C22        16.0520  -15.7760   -8.1840 C.ar    1  MOL1       -0.0580
     23 C23        15.3640  -15.0050   -7.2480 C.ar    1  MOL1       -0.0160
     24 C24        14.1270  -15.4420   -6.7380 C.ar    1  MOL1        0.1610
     25 C14        13.7970  -18.8200   -8.5350 C.3     1  MOL1        0.0280
     26 N15        14.5910  -19.8970   -7.9100 N.3     1  MOL1       -0.2870
     27 C16        13.8130  -21.1420   -7.7860 C.3     1  MOL1        0.0640
     28 C17        13.8180  -21.0790   -6.2710 C.3     1  MOL1        0.2720
     29 F18        14.5420  -22.0970   -5.6750 F       1  MOL1       -0.2040
     30 F19        12.5630  -20.8850   -5.7170 F       1  MOL1       -0.2040
     31 C20        14.6060  -19.7950   -6.4410 C.3     1  MOL1        0.0640
     32 O25        13.4040  -14.6970   -5.7950 O.3     1  MOL1       -0.4930
     33 C26        13.8590  -14.4060   -4.4780 C.3     1  MOL1        0.0780
@<TRIPOS>BOND
     1    13    12    2
     2    10    11    1
     3    12    11   am
     4    12     9    1
     5     8     9    1
     6     8    14    1
     7     8     1    1
     8    14    15   am
     9     1     2   ar
    10     1     7   ar
    11    21    22   ar
    12    21    20   ar
    13    25    20    1
    14    25    26    1
    15     2     3   ar
    16    22    23   ar
    17     7     5   ar
    18    20    19   ar
    19    26    27    1
    20    26    31    1
    21     3     4   ar
    22    27    28    1
    23    15    17    1
    24    15    16    2
    25     5     4   ar
    26     5     6    1
    27    17    18    1
    28    23    24   ar
    29    19    24   ar
    30    19    18    1
    31    24    32    1
    32    31    28    1
    33    28    30    1
    34    28    29    1
    35    32    33    1
