@<TRIPOS>MOLECULE
L3024_0_out.pdbqt
 33 35 0 0 0
SMALL
GASTEIGER

@<TRIPOS>ATOM
      1 C27        15.8420  -19.0270   -7.3270 C.ar    1  MOL1       -0.0240
      2 C28        16.9000  -18.3940   -6.6480 C.ar    1  MOL1       -0.0570
      3 C29        18.1460  -19.0210   -6.5420 C.ar    1  MOL1       -0.0610
      4 C30        18.3480  -20.2820   -7.1090 C.ar    1  MOL1       -0.0480
      5 C31        17.3050  -20.9200   -7.7900 C.ar    1  MOL1        0.0180
      6 Br32       17.5900  -22.6370   -8.5850 Br      1  MOL1       -0.0510
      7 C33        16.0560  -20.2990   -7.8940 C.ar    1  MOL1       -0.0430
      8  C6        14.4770  -18.3750   -7.3750 C.3     1  MOL1        0.0630
      9  C5        14.2870  -17.4570   -6.1540 C.3     1  MOL1        0.0510
     10  C1        14.6590  -14.0380   -7.9810 C.3     1  MOL1        0.0060
     11  N2        14.8750  -15.4120   -7.5530 N.am    1  MOL1       -0.3590
     12  C3        14.0450  -16.0340   -6.5670 C.2     1  MOL1        0.2220
     13  O4        13.0990  -15.3890   -6.0380 O.2     1  MOL1       -0.2750
     14  N7        13.4260  -19.3980   -7.4200 N.am    1  MOL1       -0.3460
     15  C8        12.1050  -19.1230   -7.8900 C.2     1  MOL1        0.2580
     16  O9        11.7960  -17.9650   -8.2770 O.2     1  MOL1       -0.2710
     17 C10        11.0760  -20.2130   -7.9400 C.3     1  MOL1        0.1670
     18 O11        10.7600  -20.5390   -9.2910 O.3     1  MOL1       -0.4800
     19 C12         9.4910  -20.9880   -9.6680 C.ar    1  MOL1        0.1660
     20 C13         8.4800  -20.0800  -10.0560 C.ar    1  MOL1        0.0120
     21 C21         7.2450  -20.5800  -10.5030 C.ar    1  MOL1       -0.0540
     22 C22         7.0010  -21.9530  -10.5190 C.ar    1  MOL1       -0.0580
     23 C23         7.9830  -22.8450  -10.0870 C.ar    1  MOL1       -0.0160
     24 C24         9.2340  -22.3690   -9.6540 C.ar    1  MOL1        0.1610
     25 C14         8.6890  -18.5830  -10.0020 C.3     1  MOL1        0.0280
     26 N15         8.3410  -18.0610   -8.6650 N.3     1  MOL1       -0.2870
     27 C16         6.8990  -18.1860   -8.3940 C.3     1  MOL1        0.0640
     28 C17         6.6980  -16.6840   -8.3710 C.3     1  MOL1        0.2720
     29 F18         6.3510  -16.1880   -7.1270 F       1  MOL1       -0.2040
     30 F19         5.9050  -16.2120   -9.4040 F       1  MOL1       -0.2040
     31 C20         8.1830  -16.5960   -8.6640 C.3     1  MOL1        0.0640
     32 O25        10.2480  -23.2320   -9.2120 O.3     1  MOL1       -0.4930
     33 C26        10.6170  -24.4410   -9.8660 C.3     1  MOL1        0.0780
@<TRIPOS>BOND
     1    22    21   ar
     2    22    23   ar
     3    21    20   ar
     4    23    24   ar
     5    20    25    1
     6    20    19   ar
     7    25    26    1
     8    33    32    1
     9    19    24   ar
    10    19    18    1
    11    24    32    1
    12    30    28    1
    13    18    17    1
    14    26    31    1
    15    26    27    1
    16    31    28    1
    17     6     5    1
    18    27    28    1
    19    28    29    1
    20    16    15    2
    21    10    11    1
    22    17    15    1
    23     7     5   ar
    24     7     1   ar
    25    15    14   am
    26     5     4   ar
    27    11    12   am
    28    14     8    1
    29     8     1    1
    30     8     9    1
    31     1     2   ar
    32     4     3   ar
    33     2     3   ar
    34    12     9    1
    35    12    13    2
