@<TRIPOS>MOLECULE
L3024_0_out.pdbqt
 33 35 0 0 0
SMALL
GASTEIGER

@<TRIPOS>ATOM
      1 C27         7.1640  -17.5550   -9.1800 C.ar    1  MOL1       -0.0240
      2 C28         6.4110  -17.4080   -8.0010 C.ar    1  MOL1       -0.0570
      3 C29         5.4030  -16.4410   -7.9210 C.ar    1  MOL1       -0.0610
      4 C30         5.1370  -15.6130   -9.0150 C.ar    1  MOL1       -0.0480
      5 C31         5.8770  -15.7510  -10.1950 C.ar    1  MOL1        0.0180
      6 Br32        5.4980  -14.6310  -11.6990 Br      1  MOL1       -0.0510
      7 C33         6.8890  -16.7130  -10.2760 C.ar    1  MOL1       -0.0430
      8  C6         8.3010  -18.5530   -9.2330 C.3     1  MOL1        0.0630
      9  C5         7.8880  -19.8590   -8.5300 C.3     1  MOL1        0.0510
     10  C1         5.0640  -21.9290  -10.2380 C.3     1  MOL1        0.0060
     11  N2         5.7790  -21.0390   -9.3340 N.am    1  MOL1       -0.3590
     12  C3         7.1820  -20.7910   -9.4720 C.2     1  MOL1        0.2220
     13  O4         7.8360  -21.3550  -10.3920 O.2     1  MOL1       -0.2750
     14  N7         9.5020  -17.9880   -8.6090 N.am    1  MOL1       -0.3460
     15  C8        10.8230  -18.3530   -9.0150 C.2     1  MOL1        0.2580
     16  O9        10.9950  -19.1960   -9.9350 O.2     1  MOL1       -0.2710
     17 C10        12.0180  -17.7250   -8.3620 C.3     1  MOL1        0.1670
     18 O11        13.2200  -18.3290   -8.8340 O.3     1  MOL1       -0.4800
     19 C12        14.2210  -18.7680   -7.9640 C.ar    1  MOL1        0.1660
     20 C13        15.2990  -17.9260   -7.6050 C.ar    1  MOL1        0.0120
     21 C21        16.2400  -18.3790   -6.6660 C.ar    1  MOL1       -0.0540
     22 C22        16.1410  -19.6630   -6.1290 C.ar    1  MOL1       -0.0580
     23 C23        15.1060  -20.5100   -6.5220 C.ar    1  MOL1       -0.0160
     24 C24        14.1400  -20.0710   -7.4460 C.ar    1  MOL1        0.1610
     25 C14        15.4680  -16.5480   -8.2070 C.3     1  MOL1        0.0280
     26 N15        15.5120  -15.5230   -7.1440 N.3     1  MOL1       -0.2870
     27 C16        14.6280  -15.8710   -6.0190 C.3     1  MOL1        0.0640
     28 C17        13.7080  -14.6960   -6.2830 C.3     1  MOL1        0.2720
     29 F18        13.7270  -13.7400   -5.2820 F       1  MOL1       -0.2040
     30 F19        12.4340  -15.0640   -6.6830 F       1  MOL1       -0.2040
     31 C20        14.6340  -14.3780   -7.4400 C.3     1  MOL1        0.0640
     32 O25        13.0840  -20.8920   -7.8680 O.3     1  MOL1       -0.4930
     33 C26        12.0260  -21.3400   -7.0270 C.3     1  MOL1        0.0780
@<TRIPOS>BOND
     1     6     5    1
     2    13    12    2
     3     7     5   ar
     4     7     1   ar
     5    10    11    1
     6     5     4   ar
     7    16    15    2
     8    12    11   am
     9    12     9    1
    10     8     1    1
    11     8    14    1
    12     8     9    1
    13     1     2   ar
    14     4     3   ar
    15    15    14   am
    16    15    17    1
    17    18    17    1
    18    18    19    1
    19    25    20    1
    20    25    26    1
    21     2     3   ar
    22    19    20   ar
    23    19    24   ar
    24    32    24    1
    25    32    33    1
    26    20    21   ar
    27    24    23   ar
    28    31    26    1
    29    31    28    1
    30    26    27    1
    31    30    28    1
    32    21    22   ar
    33    23    22   ar
    34    28    27    1
    35    28    29    1
