@<TRIPOS>MOLECULE
L3024_0_out.pdbqt
 33 35 0 0 0
SMALL
GASTEIGER

@<TRIPOS>ATOM
      1 C27        16.2830  -16.8920   -6.5480 C.ar    1  MOL1       -0.0240
      2 C28        16.9280  -15.9130   -7.3250 C.ar    1  MOL1       -0.0570
      3 C29        16.2150  -14.8090   -7.8060 C.ar    1  MOL1       -0.0610
      4 C30        14.8550  -14.6730   -7.5170 C.ar    1  MOL1       -0.0480
      5 C31        14.2020  -15.6380   -6.7420 C.ar    1  MOL1        0.0180
      6 Br32       12.3450  -15.4390   -6.3290 Br      1  MOL1       -0.0510
      7 C33        14.9100  -16.7460   -6.2640 C.ar    1  MOL1       -0.0430
      8  C6        17.0430  -18.1190   -6.0930 C.3     1  MOL1        0.0630
      9  C5        17.4000  -18.9990   -7.3060 C.3     1  MOL1        0.0510
     10  C1        14.4880  -21.4910   -8.0030 C.3     1  MOL1        0.0060
     11  N2        15.2970  -20.2820   -7.9550 N.am    1  MOL1       -0.3590
     12  C3        16.5850  -20.2600   -7.3300 C.2     1  MOL1        0.2220
     13  O4        17.0460  -21.3050   -6.7950 O.2     1  MOL1       -0.2750
     14  N7        16.2490  -18.8780   -5.1210 N.am    1  MOL1       -0.3460
     15  C8        16.4320  -18.7470   -3.7100 C.2     1  MOL1        0.2580
     16  O9        17.3070  -17.9650   -3.2520 O.2     1  MOL1       -0.2710
     17 C10        15.5740  -19.5270   -2.7590 C.3     1  MOL1        0.1670
     18 O11        15.9350  -19.2380   -1.4100 O.3     1  MOL1       -0.4800
     19 C12        14.9810  -18.9310   -0.4360 C.ar    1  MOL1        0.1660
     20 C13        14.6850  -17.5900   -0.1010 C.ar    1  MOL1        0.0120
     21 C21        13.6620  -17.3250    0.8260 C.ar    1  MOL1       -0.0540
     22 C22        12.9790  -18.3720    1.4450 C.ar    1  MOL1       -0.0580
     23 C23        13.3080  -19.6950    1.1490 C.ar    1  MOL1       -0.0160
     24 C24        14.3140  -19.9850    0.2090 C.ar    1  MOL1        0.1610
     25 C14        15.4400  -16.4300   -0.7110 C.3     1  MOL1        0.0280
     26 N15        14.5070  -15.5020   -1.3810 N.3     1  MOL1       -0.2870
     27 C16        14.3630  -15.8180   -2.8130 C.3     1  MOL1        0.0640
     28 C17        15.0150  -14.5190   -3.2400 C.3     1  MOL1        0.2720
     29 F18        14.1530  -13.6510   -3.8880 F       1  MOL1       -0.2040
     30 F19        16.2290  -14.6900   -3.8860 F       1  MOL1       -0.2040
     31 C20        15.1570  -14.2350   -1.7580 C.3     1  MOL1        0.0640
     32 O25        14.6750  -21.3010   -0.1150 O.3     1  MOL1       -0.4930
     33 C26        15.4680  -22.1460    0.7120 C.3     1  MOL1        0.0780
@<TRIPOS>BOND
     1    10    11    1
     2    11    12   am
     3     3     4   ar
     4     3     2   ar
     5     4     5   ar
     6    12     9    1
     7    12    13    2
     8     2     1   ar
     9     9     8    1
    10     5     6    1
    11     5     7   ar
    12     1     7   ar
    13     1     8    1
    14     8    14    1
    15    14    15   am
    16    29    28    1
    17    30    28    1
    18    15    16    2
    19    15    17    1
    20    28    27    1
    21    28    31    1
    22    27    26    1
    23    17    18    1
    24    31    26    1
    25    18    19    1
    26    26    25    1
    27    25    20    1
    28    19    20   ar
    29    19    24   ar
    30    32    24    1
    31    32    33    1
    32    20    21   ar
    33    24    23   ar
    34    21    22   ar
    35    23    22   ar
