@<TRIPOS>MOLECULE
L3024_0_out.pdbqt
 33 35 0 0 0
SMALL
GASTEIGER

@<TRIPOS>ATOM
      1 C27         4.2240  -21.5140   -9.1360 C.ar    1  MOL1       -0.0240
      2 C28         3.8790  -20.7390   -8.0140 C.ar    1  MOL1       -0.0570
      3 C29         2.5390  -20.6020   -7.6340 C.ar    1  MOL1       -0.0610
      4 C30         1.5330  -21.2350   -8.3680 C.ar    1  MOL1       -0.0480
      5 C31         1.8630  -22.0120   -9.4840 C.ar    1  MOL1        0.0180
      6 Br32        0.4870  -22.8970  -10.4760 Br      1  MOL1       -0.0510
      7 C33         3.2000  -22.1470   -9.8710 C.ar    1  MOL1       -0.0430
      8  C6         5.6670  -21.5980   -9.5830 C.3     1  MOL1        0.0630
      9  C5         6.5720  -21.9310   -8.3840 C.3     1  MOL1        0.0510
     10  C1        10.4160  -21.6520   -8.9510 C.3     1  MOL1        0.0060
     11  N2         9.0490  -21.3580   -8.5470 N.am    1  MOL1       -0.3590
     12  C3         7.9700  -22.2580   -8.8230 C.2     1  MOL1        0.2220
     13  O4         8.1890  -23.3380   -9.4370 O.2     1  MOL1       -0.2750
     14  N7         6.0800  -20.3370  -10.2080 N.am    1  MOL1       -0.3460
     15  C8         6.8830  -20.2900  -11.3900 C.2     1  MOL1        0.2580
     16  O9         7.2750  -21.3570  -11.9330 O.2     1  MOL1       -0.2710
     17 C10         7.2540  -18.9740  -12.0020 C.3     1  MOL1        0.1670
     18 O11         7.1400  -17.9260  -11.0420 O.3     1  MOL1       -0.4800
     19 C12         8.1280  -17.6910  -10.0810 C.ar    1  MOL1        0.1660
     20 C13         7.8340  -16.9950   -8.8860 C.ar    1  MOL1        0.0120
     21 C21         8.8370  -16.8500   -7.9130 C.ar    1  MOL1       -0.0540
     22 C22        10.1220  -17.3430   -8.1420 C.ar    1  MOL1       -0.0580
     23 C23        10.4230  -17.9850   -9.3430 C.ar    1  MOL1       -0.0160
     24 C24         9.4290  -18.1600  -10.3240 C.ar    1  MOL1        0.1610
     25 C14         6.4680  -16.4000   -8.6260 C.3     1  MOL1        0.0280
     26 N15         6.1020  -16.5500   -7.2020 N.3     1  MOL1       -0.2870
     27 C16         4.7510  -17.1150   -7.0470 C.3     1  MOL1        0.0640
     28 C17         4.2090  -15.8410   -6.4310 C.3     1  MOL1        0.2720
     29 F18         3.8450  -15.9770   -5.1030 F       1  MOL1       -0.2040
     30 F19         3.2580  -15.2050   -7.2120 F       1  MOL1       -0.2040
     31 C20         5.6090  -15.2900   -6.6200 C.3     1  MOL1        0.0640
     32 O25         9.6910  -18.7990  -11.5450 O.3     1  MOL1       -0.4930
     33 C26        10.9430  -18.7600  -12.2220 C.3     1  MOL1        0.0780
@<TRIPOS>BOND
     1    33    32    1
     2    17    15    1
     3    17    18    1
     4    16    15    2
     5    32    24    1
     6    15    14   am
     7    18    19    1
     8     6     5    1
     9    24    19   ar
    10    24    23   ar
    11    14     8    1
    12    19    20   ar
    13     7     5   ar
    14     7     1   ar
    15     8     1    1
    16     8     9    1
    17     5     4   ar
    18    13    12    2
    19    23    22   ar
    20     1     2   ar
    21    10    11    1
    22    20    25    1
    23    20    21   ar
    24    12    11   am
    25    12     9    1
    26    25    26    1
    27     4     3   ar
    28    22    21   ar
    29     2     3   ar
    30    30    28    1
    31    26    27    1
    32    26    31    1
    33    27    28    1
    34    31    28    1
    35    28    29    1
