@<TRIPOS>MOLECULE
L3024_0_out.pdbqt
 33 35 0 0 0
SMALL
GASTEIGER

@<TRIPOS>ATOM
      1 C27         9.9060  -17.8650   -8.5850 C.ar    1  MOL1       -0.0240
      2 C28         9.3840  -16.7430   -7.9170 C.ar    1  MOL1       -0.0570
      3 C29         8.3030  -16.0370   -8.4570 C.ar    1  MOL1       -0.0610
      4 C30         7.7350  -16.4440   -9.6670 C.ar    1  MOL1       -0.0480
      5 C31         8.2430  -17.5610  -10.3400 C.ar    1  MOL1        0.0180
      6 Br32        7.4500  -18.1310  -11.9850 Br      1  MOL1       -0.0510
      7 C33         9.3260  -18.2650   -9.8060 C.ar    1  MOL1       -0.0430
      8  C6        11.1210  -18.5780   -8.0310 C.3     1  MOL1        0.0630
      9  C5        10.6830  -19.8010   -7.2040 C.3     1  MOL1        0.0510
     10  C1        13.7470  -22.0460   -6.3410 C.3     1  MOL1        0.0060
     11  N2        12.7530  -20.9830   -6.3070 N.am    1  MOL1       -0.3590
     12  C3        11.6990  -20.9040   -7.2730 C.2     1  MOL1        0.2220
     13  O4        11.6150  -21.7670   -8.1890 O.2     1  MOL1       -0.2750
     14  N7        11.9200  -17.6600   -7.2120 N.am    1  MOL1       -0.3460
     15  C8        13.3260  -17.4890   -7.3990 C.2     1  MOL1        0.2580
     16  O9        13.9340  -18.1440   -8.2860 O.2     1  MOL1       -0.2710
     17 C10        14.0910  -16.5170   -6.5510 C.3     1  MOL1        0.1670
     18 O11        14.8790  -17.2090   -5.5850 O.3     1  MOL1       -0.4800
     19 C12        16.0350  -16.6510   -5.0340 C.ar    1  MOL1        0.1660
     20 C13        17.2690  -16.6990   -5.7210 C.ar    1  MOL1        0.0120
     21 C21        18.3880  -16.0570   -5.1650 C.ar    1  MOL1       -0.0540
     22 C22        18.2970  -15.4200   -3.9280 C.ar    1  MOL1       -0.0580
     23 C23        17.0900  -15.4170   -3.2280 C.ar    1  MOL1       -0.0160
     24 C24        15.9510  -16.0370   -3.7730 C.ar    1  MOL1        0.1610
     25 C14        17.4200  -17.4260   -7.0390 C.3     1  MOL1        0.0280
     26 N15        17.2830  -18.8840   -6.8430 N.3     1  MOL1       -0.2870
     27 C16        18.2980  -19.4030   -5.9110 C.3     1  MOL1        0.0640
     28 C17        18.9790  -20.2180   -6.9920 C.3     1  MOL1        0.2720
     29 F18        18.8740  -21.5860   -6.8060 F       1  MOL1       -0.2040
     30 F19        20.2630  -19.7890   -7.2890 F       1  MOL1       -0.2040
     31 C20        17.9250  -19.6520   -7.9230 C.3     1  MOL1        0.0640
     32 O25        14.7200  -16.0570   -3.1020 O.3     1  MOL1       -0.4930
     33 C26        14.0160  -14.8960   -2.6740 C.3     1  MOL1        0.0780
@<TRIPOS>BOND
     1     6     5    1
     2     5     7   ar
     3     5     4   ar
     4     7     1   ar
     5     4     3   ar
     6     1     8    1
     7     1     2   ar
     8     3     2   ar
     9    16    15    2
    10    13    12    2
    11     8    14    1
    12     8     9    1
    13    31    28    1
    14    31    26    1
    15    15    14   am
    16    15    17    1
    17    30    28    1
    18    12     9    1
    19    12    11   am
    20    25    26    1
    21    25    20    1
    22    28    29    1
    23    28    27    1
    24    26    27    1
    25    17    18    1
    26    10    11    1
    27    20    21   ar
    28    20    19   ar
    29    18    19    1
    30    21    22   ar
    31    19    24   ar
    32    22    23   ar
    33    24    23   ar
    34    24    32    1
    35    32    33    1
