@<TRIPOS>MOLECULE
L3024_0_out.pdbqt
 33 35 0 0 0
SMALL
GASTEIGER

@<TRIPOS>ATOM
      1 C27        15.5330  -16.0990   -4.7870 C.ar    1  MOL1       -0.0240
      2 C28        15.4850  -17.4460   -4.3840 C.ar    1  MOL1       -0.0570
      3 C29        16.6610  -18.1260   -4.0480 C.ar    1  MOL1       -0.0610
      4 C30        17.8930  -17.4710   -4.1130 C.ar    1  MOL1       -0.0480
      5 C31        17.9540  -16.1300   -4.5090 C.ar    1  MOL1        0.0180
      6 Br32       19.6400  -15.2270   -4.5760 Br      1  MOL1       -0.0510
      7 C33        16.7820  -15.4480   -4.8500 C.ar    1  MOL1       -0.0430
      8  C6        14.2660  -15.3920   -5.2180 C.3     1  MOL1        0.0630
      9  C5        13.3770  -15.1110   -3.9930 C.3     1  MOL1        0.0510
     10  C1        15.0080  -13.6200   -0.7860 C.3     1  MOL1        0.0060
     11  N2        14.3680  -14.5360   -1.7190 N.am    1  MOL1       -0.3590
     12  C3        14.0270  -14.1400   -3.0520 C.2     1  MOL1        0.2220
     13  O4        14.2750  -12.9670   -3.4460 O.2     1  MOL1       -0.2750
     14  N7        13.5440  -16.2010   -6.2060 N.am    1  MOL1       -0.3460
     15  C8        13.8110  -16.1220   -7.6080 C.2     1  MOL1        0.2580
     16  O9        14.6890  -15.3300   -8.0430 O.2     1  MOL1       -0.2710
     17 C10        13.0610  -16.9900   -8.5730 C.3     1  MOL1        0.1670
     18 O11        11.8830  -17.5110   -7.9630 O.3     1  MOL1       -0.4800
     19 C12        11.3780  -18.7740   -8.2840 C.ar    1  MOL1        0.1660
     20 C13        12.0130  -19.9530   -7.8280 C.ar    1  MOL1        0.0120
     21 C21        11.4270  -21.1990   -8.1080 C.ar    1  MOL1       -0.0540
     22 C22        10.2600  -21.2780   -8.8680 C.ar    1  MOL1       -0.0580
     23 C23         9.6630  -20.1170   -9.3600 C.ar    1  MOL1       -0.0160
     24 C24        10.2210  -18.8560   -9.0750 C.ar    1  MOL1        0.1610
     25 C14        13.3070  -19.9090   -7.0470 C.3     1  MOL1        0.0280
     26 N15        13.8900  -21.2620   -6.9390 N.3     1  MOL1       -0.2870
     27 C16        14.6970  -21.4080   -5.7150 C.3     1  MOL1        0.0640
     28 C17        15.9860  -21.5690   -6.4970 C.3     1  MOL1        0.2720
     29 F18        16.5510  -22.8270   -6.3850 F       1  MOL1       -0.2040
     30 F19        16.8850  -20.5310   -6.3090 F       1  MOL1       -0.2040
     31 C20        15.1230  -21.4010   -7.7330 C.3     1  MOL1        0.0640
     32 O25         9.6530  -17.6650   -9.5510 O.3     1  MOL1       -0.4930
     33 C26         8.4750  -17.0660   -9.0210 C.3     1  MOL1        0.0780
@<TRIPOS>BOND
     1    32    24    1
     2    32    33    1
     3    23    24   ar
     4    23    22   ar
     5    24    19   ar
     6    22    21   ar
     7    17    18    1
     8    17    15    1
     9    19    18    1
    10    19    20   ar
    11    21    20   ar
    12    16    15    2
    13    20    25    1
    14    31    26    1
    15    31    28    1
    16    15    14   am
    17    25    26    1
    18    26    27    1
    19    28    29    1
    20    28    30    1
    21    28    27    1
    22    14     8    1
    23     8     1    1
    24     8     9    1
    25     7     1   ar
    26     7     5   ar
    27     1     2   ar
    28     6     5    1
    29     5     4   ar
    30     2     3   ar
    31     4     3   ar
    32     9    12    1
    33    13    12    2
    34    12    11   am
    35    11    10    1
