@<TRIPOS>MOLECULE
L3024_0_out.pdbqt
 33 35 0 0 0
SMALL
GASTEIGER

@<TRIPOS>ATOM
      1 C27         6.7470  -17.9210   -8.5860 C.ar    1  MOL1       -0.0240
      2 C28         5.9860  -16.9850   -7.8620 C.ar    1  MOL1       -0.0570
      3 C29         4.8390  -17.3890   -7.1700 C.ar    1  MOL1       -0.0610
      4 C30         4.4400  -18.7280   -7.1950 C.ar    1  MOL1       -0.0480
      5 C31         5.1900  -19.6700   -7.9080 C.ar    1  MOL1        0.0180
      6 Br32        4.6560  -21.5070   -7.9230 Br      1  MOL1       -0.0510
      7 C33         6.3340  -19.2690   -8.6050 C.ar    1  MOL1       -0.0430
      8  C6         7.9440  -17.4630   -9.3900 C.3     1  MOL1        0.0630
      9  C5         7.7740  -17.8680  -10.8660 C.3     1  MOL1        0.0510
     10  C1         5.7020  -14.6730  -11.6850 C.3     1  MOL1        0.0060
     11  N2         6.4720  -15.6820  -10.9710 N.am    1  MOL1       -0.3590
     12  C3         6.9740  -16.8510  -11.6270 C.2     1  MOL1        0.2220
     13  O4         6.7500  -17.0330  -12.8550 O.2     1  MOL1       -0.2750
     14  N7         9.1770  -18.0340   -8.8370 N.am    1  MOL1       -0.3460
     15  C8        10.0020  -17.3290   -7.9080 C.2     1  MOL1        0.2580
     16  O9         9.6910  -16.1650   -7.5380 O.2     1  MOL1       -0.2710
     17 C10        11.2380  -17.9700   -7.3520 C.3     1  MOL1        0.1670
     18 O11        12.1460  -18.2940   -8.4020 O.3     1  MOL1       -0.4800
     19 C12        13.3950  -18.8690   -8.1510 C.ar    1  MOL1        0.1660
     20 C13        14.5600  -18.0740   -8.0510 C.ar    1  MOL1        0.0120
     21 C21        15.7800  -18.6850   -7.7190 C.ar    1  MOL1       -0.0540
     22 C22        15.8550  -20.0660   -7.5370 C.ar    1  MOL1       -0.0580
     23 C23        14.7140  -20.8550   -7.6850 C.ar    1  MOL1       -0.0160
     24 C24        13.4760  -20.2630   -7.9980 C.ar    1  MOL1        0.1610
     25 C14        14.5280  -16.5810   -8.2940 C.3     1  MOL1        0.0280
     26 N15        14.9580  -15.8520   -7.0840 N.3     1  MOL1       -0.2870
     27 C16        14.2300  -16.3110   -5.8880 C.3     1  MOL1        0.0640
     28 C17        13.5300  -14.9770   -5.7130 C.3     1  MOL1        0.2720
     29 F18        13.9110  -14.2960   -4.5700 F       1  MOL1       -0.2040
     30 F19        12.1590  -15.0380   -5.8990 F       1  MOL1       -0.2040
     31 C20        14.2880  -14.5470   -6.9540 C.3     1  MOL1        0.0640
     32 O25        12.3070  -21.0210   -8.1570 O.3     1  MOL1       -0.4930
     33 C26        12.1900  -22.4010   -7.8280 C.3     1  MOL1        0.0780
@<TRIPOS>BOND
     1    13    12    2
     2    10    11    1
     3    12    11   am
     4    12     9    1
     5     9     8    1
     6     8    14    1
     7     8     1    1
     8    14    15   am
     9     7     1   ar
    10     7     5   ar
    11     1     2   ar
    12    18    19    1
    13    18    17    1
    14    25    20    1
    15    25    26    1
    16    32    24    1
    17    32    33    1
    18    19    20   ar
    19    19    24   ar
    20    20    21   ar
    21    24    23   ar
    22     6     5    1
    23    15    16    2
    24    15    17    1
    25     5     4   ar
    26     2     3   ar
    27    21    22   ar
    28    23    22   ar
    29     4     3   ar
    30    26    31    1
    31    26    27    1
    32    31    28    1
    33    30    28    1
    34    27    28    1
    35    28    29    1
