@<TRIPOS>MOLECULE
L3024_0_out.pdbqt
 33 35 0 0 0
SMALL
GASTEIGER

@<TRIPOS>ATOM
      1 C27        16.9230  -18.8760   -4.2860 C.ar    1  MOL1       -0.0240
      2 C28        17.1530  -17.5240   -3.9730 C.ar    1  MOL1       -0.0570
      3 C29        16.7510  -17.0060   -2.7370 C.ar    1  MOL1       -0.0610
      4 C30        16.1150  -17.8300   -1.8050 C.ar    1  MOL1       -0.0480
      5 C31        15.8820  -19.1770   -2.1030 C.ar    1  MOL1        0.0180
      6 Br32       15.0300  -20.3090   -0.8170 Br      1  MOL1       -0.0510
      7 C33        16.2780  -19.6970   -3.3390 C.ar    1  MOL1       -0.0430
      8  C6        17.2950  -19.4110   -5.6520 C.3     1  MOL1        0.0630
      9  C5        18.7000  -18.9180   -6.0460 C.3     1  MOL1        0.0510
     10  C1        20.2740  -21.6220   -8.3670 C.3     1  MOL1        0.0060
     11  N2        19.7870  -20.9180   -7.1890 N.am    1  MOL1       -0.3590
     12  C3        19.2020  -19.6140   -7.2780 C.2     1  MOL1        0.2220
     13  O4        19.1010  -19.0410   -8.3970 O.2     1  MOL1       -0.2750
     14  N7        16.3040  -18.9930   -6.6490 N.am    1  MOL1       -0.3460
     15  C8        15.4380  -19.9200   -7.3070 C.2     1  MOL1        0.2580
     16  O9        15.5110  -21.1510   -7.0490 O.2     1  MOL1       -0.2710
     17 C10        14.4230  -19.4370   -8.3000 C.3     1  MOL1        0.1670
     18 O11        14.5640  -18.0340   -8.5140 O.3     1  MOL1       -0.4800
     19 C12        13.8670  -17.0940   -7.7510 C.ar    1  MOL1        0.1660
     20 C13        12.4580  -17.1430   -7.6380 C.ar    1  MOL1        0.0120
     21 C21        11.8060  -16.2270   -6.7970 C.ar    1  MOL1       -0.0540
     22 C22        12.5320  -15.2480   -6.1170 C.ar    1  MOL1       -0.0580
     23 C23        13.9160  -15.1700   -6.2690 C.ar    1  MOL1       -0.0160
     24 C24        14.5940  -16.0900   -7.0910 C.ar    1  MOL1        0.1610
     25 C14        11.6330  -18.1560   -8.4010 C.3     1  MOL1        0.0280
     26 N15        10.4150  -18.5050   -7.6420 N.3     1  MOL1       -0.2870
     27 C16        10.3780  -19.9380   -7.3050 C.3     1  MOL1        0.0640
     28 C17         9.1730  -20.1900   -8.1910 C.3     1  MOL1        0.2720
     29 F18         8.0320  -20.5380   -7.4900 F       1  MOL1       -0.2040
     30 F19         9.4400  -21.0120   -9.2730 F       1  MOL1       -0.2040
     31 C20         9.2520  -18.7130   -8.5220 C.3     1  MOL1        0.0640
     32 O25        15.9840  -16.0450   -7.2710 O.3     1  MOL1       -0.4930
     33 C26        16.7720  -14.8640   -7.1660 C.3     1  MOL1        0.0780
@<TRIPOS>BOND
     1    30    28    1
     2    31    28    1
     3    31    26    1
     4    18    17    1
     5    18    19    1
     6    25    26    1
     7    25    20    1
     8    13    12    2
     9    10    11    1
    10    17    15    1
    11    28    29    1
    12    28    27    1
    13    19    20   ar
    14    19    24   ar
    15    26    27    1
    16    20    21   ar
    17    15    16    2
    18    15    14   am
    19    12    11   am
    20    12     9    1
    21    32    33    1
    22    32    24    1
    23    24    23   ar
    24    21    22   ar
    25    14     8    1
    26    23    22   ar
    27     9     8    1
    28     8     1    1
    29     1     2   ar
    30     1     7   ar
    31     2     3   ar
    32     7     5   ar
    33     3     4   ar
    34     5     4   ar
    35     5     6    1
