@<TRIPOS>MOLECULE
L3024_0_out.pdbqt
 33 35 0 0 0
SMALL
GASTEIGER

@<TRIPOS>ATOM
      1 C27         8.7840  -18.7600   -8.9120 C.ar    1  MOL1       -0.0240
      2 C28         9.1420  -17.4350   -9.2230 C.ar    1  MOL1       -0.0570
      3 C29         8.2270  -16.3930   -9.0390 C.ar    1  MOL1       -0.0610
      4 C30         6.9480  -16.6620   -8.5450 C.ar    1  MOL1       -0.0480
      5 C31         6.5800  -17.9750   -8.2280 C.ar    1  MOL1        0.0180
      6 Br32        4.8370  -18.3400   -7.5300 Br      1  MOL1       -0.0510
      7 C33         7.4910  -19.0200   -8.4160 C.ar    1  MOL1       -0.0430
      8  C6         9.7540  -19.8900   -9.1820 C.3     1  MOL1        0.0630
      9  C5         9.0490  -21.2450   -9.0000 C.3     1  MOL1        0.0510
     10  C1        10.8200  -24.4780  -10.2580 C.3     1  MOL1        0.0060
     11  N2        10.2710  -23.4450   -9.3920 N.am    1  MOL1       -0.3590
     12  C3         9.6140  -22.2880   -9.9200 C.2     1  MOL1        0.2220
     13  O4         9.5020  -22.1390  -11.1680 O.2     1  MOL1       -0.2750
     14  N7        10.9150  -19.7870   -8.2910 N.am    1  MOL1       -0.3460
     15  C8        12.1340  -19.1560   -8.6860 C.2     1  MOL1        0.2580
     16  O9        12.2520  -18.6670   -9.8410 O.2     1  MOL1       -0.2710
     17 C10        13.2820  -19.0550   -7.7260 C.3     1  MOL1        0.1670
     18 O11        14.5160  -19.2940   -8.3970 O.3     1  MOL1       -0.4800
     19 C12        15.7500  -19.1150   -7.7650 C.ar    1  MOL1        0.1660
     20 C13        16.3490  -17.8370   -7.6780 C.ar    1  MOL1        0.0120
     21 C21        17.5500  -17.6910   -6.9660 C.ar    1  MOL1       -0.0540
     22 C22        18.1730  -18.7990   -6.3910 C.ar    1  MOL1       -0.0580
     23 C23        17.6060  -20.0670   -6.5220 C.ar    1  MOL1       -0.0160
     24 C24        16.3930  -20.2360   -7.2140 C.ar    1  MOL1        0.1610
     25 C14        15.7310  -16.6220   -8.3330 C.3     1  MOL1        0.0280
     26 N15        15.6730  -15.4950   -7.3790 N.3     1  MOL1       -0.2870
     27 C16        14.8420  -15.8190   -6.2080 C.3     1  MOL1        0.0640
     28 C17        13.7980  -14.7820   -6.5700 C.3     1  MOL1        0.2720
     29 F18        13.7220  -13.7320   -5.6710 F       1  MOL1       -0.2040
     30 F19        12.5670  -15.3230   -6.9060 F       1  MOL1       -0.2040
     31 C20        14.6740  -14.4860   -7.7710 C.3     1  MOL1        0.0640
     32 O25        15.7910  -21.4930   -7.3680 O.3     1  MOL1       -0.4930
     33 C26        15.1230  -22.2000   -6.3280 C.3     1  MOL1        0.0780
@<TRIPOS>BOND
     1    13    12    2
     2    10    11    1
     3    12    11   am
     4    12     9    1
     5    16    15    2
     6     2     3   ar
     7     2     1   ar
     8     8     9    1
     9     8     1    1
    10     8    14    1
    11     3     4   ar
    12     1     7   ar
    13    15    14   am
    14    15    17    1
    15     4     5   ar
    16     7     5   ar
    17    18    19    1
    18    18    17    1
    19    25    20    1
    20    25    26    1
    21     5     6    1
    22    31    26    1
    23    31    28    1
    24    19    20   ar
    25    19    24   ar
    26    20    21   ar
    27    26    27    1
    28    32    24    1
    29    32    33    1
    30    24    23   ar
    31    21    22   ar
    32    30    28    1
    33    28    27    1
    34    28    29    1
    35    23    22   ar
