@<TRIPOS>MOLECULE
L3024_0_out.pdbqt
 33 35 0 0 0
SMALL
GASTEIGER

@<TRIPOS>ATOM
      1 C27        10.4980  -18.9090   -9.3370 C.ar    1  MOL1       -0.0240
      2 C28        10.3470  -19.0760  -10.7260 C.ar    1  MOL1       -0.0570
      3 C29         9.2280  -18.5550  -11.3840 C.ar    1  MOL1       -0.0610
      4 C30         8.2500  -17.8630  -10.6640 C.ar    1  MOL1       -0.0480
      5 C31         8.3900  -17.6870   -9.2830 C.ar    1  MOL1        0.0180
      6 Br32        7.0610  -16.7200   -8.3030 Br      1  MOL1       -0.0510
      7 C33         9.5040  -18.2110   -8.6210 C.ar    1  MOL1       -0.0430
      8  C6        11.6740  -19.5370   -8.6220 C.3     1  MOL1        0.0630
      9  C5        11.1730  -20.5110   -7.5400 C.3     1  MOL1        0.0510
     10  C1        12.9050  -23.9680   -8.0170 C.3     1  MOL1        0.0060
     11  N2        11.9980  -22.8390   -8.1650 N.am    1  MOL1       -0.3590
     12  C3        12.1190  -21.6630   -7.3560 C.2     1  MOL1        0.2220
     13  O4        13.0260  -21.5870   -6.4830 O.2     1  MOL1       -0.2750
     14  N7        12.5230  -18.4990   -8.0280 N.am    1  MOL1       -0.3460
     15  C8        13.9410  -18.4740   -8.1990 C.2     1  MOL1        0.2580
     16  O9        14.5160  -19.3720   -8.8700 O.2     1  MOL1       -0.2710
     17 C10        14.7590  -17.3740   -7.5920 C.3     1  MOL1        0.1670
     18 O11        14.9500  -17.6050   -6.1980 O.3     1  MOL1       -0.4800
     19 C12        16.0240  -17.0510   -5.4950 C.ar    1  MOL1        0.1660
     20 C13        17.2110  -17.7870   -5.2760 C.ar    1  MOL1        0.0120
     21 C21        18.2950  -17.1640   -4.6340 C.ar    1  MOL1       -0.0540
     22 C22        18.1860  -15.8520   -4.1750 C.ar    1  MOL1       -0.0580
     23 C23        16.9960  -15.1440   -4.3470 C.ar    1  MOL1       -0.0160
     24 C24        15.9040  -15.7400   -5.0050 C.ar    1  MOL1        0.1610
     25 C14        17.3470  -19.2290   -5.7130 C.3     1  MOL1        0.0280
     26 N15        18.5400  -19.3990   -6.5670 N.3     1  MOL1       -0.2870
     27 C16        18.2880  -18.9490   -7.9460 C.3     1  MOL1        0.0640
     28 C17        18.4280  -20.3510   -8.5070 C.3     1  MOL1        0.2720
     29 F18        19.5320  -20.5140   -9.3250 F       1  MOL1       -0.2040
     30 F19        17.2540  -20.8570   -9.0400 F       1  MOL1       -0.2040
     31 C20        18.6700  -20.7760   -7.0720 C.3     1  MOL1        0.0640
     32 O25        14.6910  -15.0640   -5.1980 O.3     1  MOL1       -0.4930
     33 C26        13.6800  -14.9230   -4.2050 C.3     1  MOL1        0.0780
@<TRIPOS>BOND
     1     3     2   ar
     2     3     4   ar
     3     2     1   ar
     4     4     5   ar
     5     1     8    1
     6     1     7   ar
     7    29    28    1
     8     5     7   ar
     9     5     6    1
    10    30    28    1
    11    16    15    2
    12     8    14    1
    13     8     9    1
    14    28    27    1
    15    28    31    1
    16    15    14   am
    17    15    17    1
    18    11    10    1
    19    11    12   am
    20    27    26    1
    21    17    18    1
    22     9    12    1
    23    12    13    2
    24    31    26    1
    25    26    25    1
    26    18    19    1
    27    25    20    1
    28    19    20   ar
    29    19    24   ar
    30    20    21   ar
    31    32    24    1
    32    32    33    1
    33    24    23   ar
    34    21    22   ar
    35    23    22   ar
