@<TRIPOS>MOLECULE
L3024_0_out.pdbqt
 33 35 0 0 0
SMALL
GASTEIGER

@<TRIPOS>ATOM
      1 C27         7.8320  -20.1710  -10.3690 C.ar    1  MOL1       -0.0240
      2 C28         8.6520  -21.2720  -10.6790 C.ar    1  MOL1       -0.0570
      3 C29         8.1160  -22.5640  -10.7200 C.ar    1  MOL1       -0.0610
      4 C30         6.7600  -22.7690  -10.4510 C.ar    1  MOL1       -0.0480
      5 C31         5.9330  -21.6830  -10.1450 C.ar    1  MOL1        0.0180
      6 Br32        4.0720  -21.9620   -9.8000 Br      1  MOL1       -0.0510
      7 C33         6.4660  -20.3900  -10.0980 C.ar    1  MOL1       -0.0430
      8  C6         8.4340  -18.7870  -10.2550 C.3     1  MOL1        0.0630
      9  C5         8.1210  -17.9710  -11.5220 C.3     1  MOL1        0.0510
     10  C1         5.4750  -15.1330  -11.8630 C.3     1  MOL1        0.0060
     11  N2         6.3090  -16.2920  -12.1430 N.am    1  MOL1       -0.3590
     12  C3         7.2830  -16.7650  -11.2070 C.2     1  MOL1        0.2220
     13  O4         7.4420  -16.1710  -10.1060 O.2     1  MOL1       -0.2750
     14  N7         9.8830  -18.8790  -10.0450 N.am    1  MOL1       -0.3460
     15  C8        10.4690  -18.9350   -8.7420 C.2     1  MOL1        0.2580
     16  O9         9.7400  -18.8960   -7.7160 O.2     1  MOL1       -0.2710
     17 C10        11.9550  -19.0540   -8.5840 C.3     1  MOL1        0.1670
     18 O11        12.2890  -19.3680   -7.2340 O.3     1  MOL1       -0.4800
     19 C12        13.4130  -20.1320   -6.9060 C.ar    1  MOL1        0.1660
     20 C13        14.5950  -19.5240   -6.4250 C.ar    1  MOL1        0.0120
     21 C21        15.6720  -20.3360   -6.0330 C.ar    1  MOL1       -0.0540
     22 C22        15.5970  -21.7230   -6.1620 C.ar    1  MOL1       -0.0580
     23 C23        14.4480  -22.3170   -6.6850 C.ar    1  MOL1       -0.0160
     24 C24        13.3490  -21.5260   -7.0650 C.ar    1  MOL1        0.1610
     25 C14        14.7330  -18.0210   -6.3210 C.3     1  MOL1        0.0280
     26 N15        15.2250  -17.4590   -7.5960 N.3     1  MOL1       -0.2870
     27 C16        16.6470  -17.0870   -7.5100 C.3     1  MOL1        0.0640
     28 C17        16.3460  -15.6100   -7.6690 C.3     1  MOL1        0.2720
     29 F18        16.8220  -15.0700   -8.8510 F       1  MOL1       -0.2040
     30 F19        16.6470  -14.8560   -6.5460 F       1  MOL1       -0.2040
     31 C20        14.8920  -16.0320   -7.7390 C.3     1  MOL1        0.0640
     32 O25        12.1760  -22.0840   -7.5950 O.3     1  MOL1       -0.4930
     33 C26        12.0600  -23.4260   -8.0560 C.3     1  MOL1        0.0780
@<TRIPOS>BOND
     1    11    10    1
     2    11    12   am
     3     9    12    1
     4     9     8    1
     5    12    13    2
     6     3     2   ar
     7     3     4   ar
     8     2     1   ar
     9     4     5   ar
    10     1     8    1
    11     1     7   ar
    12     8    14    1
    13     5     7   ar
    14     5     6    1
    15    14    15   am
    16    29    28    1
    17    15    17    1
    18    15    16    2
    19    17    18    1
    20    33    32    1
    21    31    28    1
    22    31    26    1
    23    28    27    1
    24    28    30    1
    25    26    27    1
    26    26    25    1
    27    32    24    1
    28    18    19    1
    29    24    19   ar
    30    24    23   ar
    31    19    20   ar
    32    23    22   ar
    33    20    25    1
    34    20    21   ar
    35    22    21   ar
