@<TRIPOS>MOLECULE
L3024_0_out.pdbqt
 33 35 0 0 0
SMALL
GASTEIGER

@<TRIPOS>ATOM
      1 C27         7.3960  -19.2770   -9.9930 C.ar    1  MOL1       -0.0240
      2 C28         6.3760  -19.0870   -9.0430 C.ar    1  MOL1       -0.0570
      3 C29         5.9090  -20.1640   -8.2820 C.ar    1  MOL1       -0.0610
      4 C30         6.4540  -21.4380   -8.4620 C.ar    1  MOL1       -0.0480
      5 C31         7.4710  -21.6400   -9.4020 C.ar    1  MOL1        0.0180
      6 Br32        8.2310  -23.3810   -9.6320 Br      1  MOL1       -0.0510
      7 C33         7.9370  -20.5670  -10.1680 C.ar    1  MOL1       -0.0430
      8  C6         7.8450  -18.1220  -10.8630 C.3     1  MOL1        0.0630
      9  C5         9.3470  -17.8570  -10.6530 C.3     1  MOL1        0.0510
     10  C1        10.8560  -18.7590   -7.1770 C.3     1  MOL1        0.0060
     11  N2        10.4940  -18.8050   -8.5870 N.am    1  MOL1       -0.3590
     12  C3         9.6940  -17.7850   -9.1940 C.2     1  MOL1        0.2220
     13  O4         9.2780  -16.8140   -8.5060 O.2     1  MOL1       -0.2750
     14  N7         7.0610  -16.9210  -10.5580 N.am    1  MOL1       -0.3460
     15  C8         6.3430  -16.1960  -11.5590 C.2     1  MOL1        0.2580
     16  O9         6.3730  -16.5730  -12.7610 O.2     1  MOL1       -0.2710
     17 C10         5.5350  -14.9890  -11.1880 C.3     1  MOL1        0.1670
     18 O11         4.2020  -15.1100  -11.6800 O.3     1  MOL1       -0.4800
     19 C12         3.2910  -14.0520  -11.6210 C.ar    1  MOL1        0.1660
     20 C13         2.3330  -13.9700  -10.5840 C.ar    1  MOL1        0.0120
     21 C21         1.4890  -12.8490  -10.5190 C.ar    1  MOL1       -0.0540
     22 C22         1.5610  -11.8510  -11.4910 C.ar    1  MOL1       -0.0580
     23 C23         2.4720  -11.9590  -12.5410 C.ar    1  MOL1       -0.0160
     24 C24         3.3420  -13.0630  -12.6170 C.ar    1  MOL1        0.1610
     25 C14         2.1900  -15.0580   -9.5430 C.3     1  MOL1        0.0280
     26 N15         2.8220  -14.6430   -8.2740 N.3     1  MOL1       -0.2870
     27 C16         4.1520  -15.2540   -8.1060 C.3     1  MOL1        0.0640
     28 C17         3.7030  -16.0790   -6.9160 C.3     1  MOL1        0.2720
     29 F18         4.3060  -15.7120   -5.7260 F       1  MOL1       -0.2040
     30 F19         3.7110  -17.4450   -7.1510 F       1  MOL1       -0.2040
     31 C20         2.3460  -15.4390   -7.1300 C.3     1  MOL1        0.0640
     32 O25         4.2710  -13.2100  -13.6560 O.3     1  MOL1       -0.4930
     33 C26         5.1330  -12.1760  -14.1180 C.3     1  MOL1        0.0780
@<TRIPOS>BOND
     1    33    32    1
     2    32    24    1
     3    16    15    2
     4    24    23   ar
     5    24    19   ar
     6    23    22   ar
     7    18    19    1
     8    18    17    1
     9    19    20   ar
    10    15    17    1
    11    15    14   am
    12    22    21   ar
    13     8     9    1
    14     8    14    1
    15     8     1    1
    16     9    12    1
    17    20    21   ar
    18    20    25    1
    19     7     1   ar
    20     7     5   ar
    21     1     2   ar
    22     6     5    1
    23    25    26    1
    24     5     4   ar
    25    12    11   am
    26    12    13    2
    27     2     3   ar
    28    11    10    1
    29     4     3   ar
    30    26    27    1
    31    26    31    1
    32    27    28    1
    33    30    28    1
    34    31    28    1
    35    28    29    1
