@<TRIPOS>MOLECULE
L3024_0_out.pdbqt
 33 35 0 0 0
SMALL
GASTEIGER

@<TRIPOS>ATOM
      1 C27         8.8870  -20.4770   -9.0390 C.ar    1  MOL1       -0.0240
      2 C28         9.0730  -21.4520  -10.0370 C.ar    1  MOL1       -0.0570
      3 C29         8.0870  -22.4150  -10.2780 C.ar    1  MOL1       -0.0610
      4 C30         6.9090  -22.4150   -9.5270 C.ar    1  MOL1       -0.0480
      5 C31         6.7100  -21.4490   -8.5330 C.ar    1  MOL1        0.0180
      6 Br32        5.0870  -21.4370   -7.5200 Br      1  MOL1       -0.0510
      7 C33         7.6960  -20.4890   -8.2860 C.ar    1  MOL1       -0.0430
      8  C6         9.9890  -19.4850   -8.7360 C.3     1  MOL1        0.0630
      9  C5         9.9930  -18.3630   -9.7900 C.3     1  MOL1        0.0510
     10  C1         6.7930  -16.2260  -10.3950 C.3     1  MOL1        0.0060
     11  N2         7.8980  -17.1540  -10.5870 N.am    1  MOL1       -0.3590
     12  C3         8.8710  -17.3910   -9.5640 C.2     1  MOL1        0.2220
     13  O4         8.7890  -16.7860   -8.4610 O.2     1  MOL1       -0.2750
     14  N7        11.2890  -20.1640   -8.7000 N.am    1  MOL1       -0.3460
     15  C8        11.8680  -20.6510   -7.4880 C.2     1  MOL1        0.2580
     16  O9        11.2680  -20.4990   -6.3900 O.2     1  MOL1       -0.2710
     17 C10        13.1880  -21.3620   -7.5100 C.3     1  MOL1        0.1670
     18 O11        14.1750  -20.5590   -8.1530 O.3     1  MOL1       -0.4800
     19 C12        15.3890  -20.2410   -7.5370 C.ar    1  MOL1        0.1660
     20 C13        15.5040  -19.1180   -6.6860 C.ar    1  MOL1        0.0120
     21 C21        16.7220  -18.8820   -6.0250 C.ar    1  MOL1       -0.0540
     22 C22        17.8190  -19.7150   -6.2430 C.ar    1  MOL1       -0.0580
     23 C23        17.7170  -20.7930   -7.1220 C.ar    1  MOL1       -0.0160
     24 C24        16.5020  -21.0620   -7.7800 C.ar    1  MOL1        0.1610
     25 C14        14.3530  -18.1620   -6.4680 C.3     1  MOL1        0.0280
     26 N15        14.8270  -16.7640   -6.5160 N.3     1  MOL1       -0.2870
     27 C16        14.3650  -15.9950   -5.3470 C.3     1  MOL1        0.0640
     28 C17        13.4880  -15.0950   -6.1950 C.3     1  MOL1        0.2720
     29 F18        13.9130  -13.7780   -6.2290 F       1  MOL1       -0.2040
     30 F19        12.1330  -15.2410   -5.9460 F       1  MOL1       -0.2040
     31 C20        13.9770  -15.9180   -7.3710 C.3     1  MOL1        0.0640
     32 O25        16.3590  -22.1350   -8.6720 O.3     1  MOL1       -0.4930
     33 C26        17.4420  -22.8880   -9.2070 C.3     1  MOL1        0.0780
@<TRIPOS>BOND
     1    11    10    1
     2    11    12   am
     3     3     2   ar
     4     3     4   ar
     5     2     1   ar
     6     9    12    1
     7     9     8    1
     8    12    13    2
     9     4     5   ar
    10    33    32    1
    11     1     8    1
    12     1     7   ar
    13     8    14    1
    14    14    15   am
    15    32    24    1
    16     5     7   ar
    17     5     6    1
    18    18    19    1
    19    18    17    1
    20    24    19   ar
    21    24    23   ar
    22    19    20   ar
    23    17    15    1
    24    15    16    2
    25    31    26    1
    26    31    28    1
    27    23    22   ar
    28    20    25    1
    29    20    21   ar
    30    26    25    1
    31    26    27    1
    32    22    21   ar
    33    29    28    1
    34    28    30    1
    35    28    27    1
