@<TRIPOS>MOLECULE
L3024_0_out.pdbqt
 33 35 0 0 0
SMALL
GASTEIGER

@<TRIPOS>ATOM
      1 C27         5.9750  -22.0910   -9.9450 C.ar    1  MOL1       -0.0240
      2 C28         6.1180  -21.5860  -11.2500 C.ar    1  MOL1       -0.0570
      3 C29         7.3190  -21.7550  -11.9470 C.ar    1  MOL1       -0.0610
      4 C30         8.3880  -22.4280  -11.3480 C.ar    1  MOL1       -0.0480
      5 C31         8.2580  -22.9370  -10.0510 C.ar    1  MOL1        0.0180
      6 Br32        9.7140  -23.8770   -9.2410 Br      1  MOL1       -0.0510
      7 C33         7.0600  -22.7660   -9.3500 C.ar    1  MOL1       -0.0430
      8  C6         4.6980  -21.8400   -9.1720 C.3     1  MOL1        0.0630
      9  C5         3.4860  -22.3350   -9.9810 C.3     1  MOL1        0.0510
     10  C1        -0.2670  -22.0570   -8.9770 C.3     1  MOL1        0.0060
     11  N2         0.9650  -22.0530   -9.7520 N.am    1  MOL1       -0.3590
     12  C3         2.2340  -22.3370   -9.1530 C.2     1  MOL1        0.2220
     13  O4         2.3080  -22.5940   -7.9200 O.2     1  MOL1       -0.2750
     14  N7         4.5630  -20.4130   -8.8610 N.am    1  MOL1       -0.3460
     15  C8         4.7660  -19.8890   -7.5470 C.2     1  MOL1        0.2580
     16  O9         5.0630  -20.6590   -6.5950 O.2     1  MOL1       -0.2710
     17 C10         4.6420  -18.4180   -7.2900 C.3     1  MOL1        0.1670
     18 O11         5.8890  -17.7640   -7.5160 O.3     1  MOL1       -0.4800
     19 C12         6.2530  -17.2760   -8.7740 C.ar    1  MOL1        0.1660
     20 C13         7.2380  -17.9250   -9.5520 C.ar    1  MOL1        0.0120
     21 C21         7.5160  -17.4460  -10.8430 C.ar    1  MOL1       -0.0540
     22 C22         6.8640  -16.3150  -11.3350 C.ar    1  MOL1       -0.0580
     23 C23         5.9280  -15.6470  -10.5450 C.ar    1  MOL1       -0.0160
     24 C24         5.6180  -16.1200   -9.2570 C.ar    1  MOL1        0.1610
     25 C14         8.0050  -19.1210   -9.0330 C.3     1  MOL1        0.0280
     26 N15         9.4590  -18.8720   -9.1040 N.3     1  MOL1       -0.2870
     27 C16        10.2310  -20.0430   -8.6560 C.3     1  MOL1        0.0640
     28 C17        10.7740  -19.3130   -7.4430 C.3     1  MOL1        0.2720
     29 F18        12.1400  -19.0940   -7.4910 F       1  MOL1       -0.2040
     30 F19        10.3300  -19.8310   -6.2360 F       1  MOL1       -0.2040
     31 C20         9.9550  -18.1340   -7.9290 C.3     1  MOL1        0.0640
     32 O25         4.6840  -15.4770   -8.4310 O.3     1  MOL1       -0.4930
     33 C26         3.5980  -14.6890   -8.9050 C.3     1  MOL1        0.0780
@<TRIPOS>BOND
     1     3     4   ar
     2     3     2   ar
     3     4     5   ar
     4    22    21   ar
     5    22    23   ar
     6     2     1   ar
     7    21    20   ar
     8    23    24   ar
     9     5     7   ar
    10     5     6    1
    11     9     8    1
    12     9    12    1
    13     1     7   ar
    14     1     8    1
    15    11    12   am
    16    11    10    1
    17    20    25    1
    18    20    19   ar
    19    24    19   ar
    20    24    32    1
    21     8    14    1
    22    12    13    2
    23    26    25    1
    24    26    27    1
    25    26    31    1
    26    33    32    1
    27    14    15   am
    28    19    18    1
    29    27    28    1
    30    31    28    1
    31    15    17    1
    32    15    16    2
    33    18    17    1
    34    29    28    1
    35    28    30    1
