@<TRIPOS>MOLECULE
L3024_0_out.pdbqt
 33 35 0 0 0
SMALL
GASTEIGER

@<TRIPOS>ATOM
      1 C27        15.6430  -17.9700   -7.3710 C.ar    1  MOL1       -0.0240
      2 C28        16.0820  -17.2110   -8.4710 C.ar    1  MOL1       -0.0570
      3 C29        16.4260  -15.8640   -8.3090 C.ar    1  MOL1       -0.0610
      4 C30        16.3350  -15.2630   -7.0510 C.ar    1  MOL1       -0.0480
      5 C31        15.9020  -16.0080   -5.9480 C.ar    1  MOL1        0.0180
      6 Br32       15.7980  -15.1900   -4.2220 Br      1  MOL1       -0.0510
      7 C33        15.5530  -17.3530   -6.1070 C.ar    1  MOL1       -0.0430
      8  C6        15.2040  -19.4050   -7.5680 C.3     1  MOL1        0.0630
      9  C5        15.9210  -20.0130   -8.7860 C.3     1  MOL1        0.0510
     10  C1        18.1630  -22.9900   -7.6520 C.3     1  MOL1        0.0060
     11  N2        17.0090  -22.1930   -8.0440 N.am    1  MOL1       -0.3590
     12  C3        17.1290  -20.8050   -8.3760 C.2     1  MOL1        0.2220
     13  O4        18.2540  -20.2380   -8.3280 O.2     1  MOL1       -0.2750
     14  N7        13.7490  -19.4720   -7.7380 N.am    1  MOL1       -0.3460
     15  C8        12.8990  -20.1720   -6.8260 C.2     1  MOL1        0.2580
     16  O9        13.3900  -20.7720   -5.8340 O.2     1  MOL1       -0.2710
     17 C10        11.4140  -20.1870   -7.0330 C.3     1  MOL1        0.1670
     18 O11        11.0710  -19.5060   -8.2380 O.3     1  MOL1       -0.4800
     19 C12        10.0480  -18.5570   -8.2870 C.ar    1  MOL1        0.1660
     20 C13         8.7290  -18.9210   -8.6420 C.ar    1  MOL1        0.0120
     21 C21         7.7150  -17.9500   -8.6020 C.ar    1  MOL1       -0.0540
     22 C22         8.0120  -16.6300   -8.2620 C.ar    1  MOL1       -0.0580
     23 C23         9.3230  -16.2620   -7.9600 C.ar    1  MOL1       -0.0160
     24 C24        10.3520  -17.2210   -7.9750 C.ar    1  MOL1        0.1610
     25 C14         8.3790  -20.3300   -9.0680 C.3     1  MOL1        0.0280
     26 N15         6.9260  -20.4510   -9.3050 N.3     1  MOL1       -0.2870
     27 C16         6.4060  -21.7470   -8.8360 C.3     1  MOL1        0.0640
     28 C17         6.0650  -22.2020  -10.2410 C.3     1  MOL1        0.2720
     29 F18         4.7070  -22.3390  -10.4670 F       1  MOL1       -0.2040
     30 F19         6.8180  -23.2810  -10.6760 F       1  MOL1       -0.2040
     31 C20         6.6200  -20.8630  -10.6860 C.3     1  MOL1        0.0640
     32 O25        11.6830  -16.8920   -7.6790 O.3     1  MOL1       -0.4930
     33 C26        12.0810  -16.0040   -6.6400 C.3     1  MOL1        0.0780
@<TRIPOS>BOND
     1    31    28    1
     2    31    26    1
     3    30    28    1
     4    29    28    1
     5    28    27    1
     6    26    25    1
     7    26    27    1
     8    25    20    1
     9     9    12    1
    10     9     8    1
    11    20    21   ar
    12    20    19   ar
    13    21    22   ar
    14     2     3   ar
    15     2     1   ar
    16    12    13    2
    17    12    11   am
    18     3     4   ar
    19    19    18    1
    20    19    24   ar
    21    22    23   ar
    22    18    17    1
    23    11    10    1
    24    24    23   ar
    25    24    32    1
    26    14     8    1
    27    14    15   am
    28    32    33    1
    29     8     1    1
    30     1     7   ar
    31     4     5   ar
    32    17    15    1
    33    15    16    2
    34     7     5   ar
    35     5     6    1
