@<TRIPOS>MOLECULE
L3024_0_out.pdbqt
 33 35 0 0 0
SMALL
GASTEIGER

@<TRIPOS>ATOM
      1 C27        15.1560  -18.6930   -6.8990 C.ar    1  MOL1       -0.0240
      2 C28        13.8320  -18.7550   -7.3700 C.ar    1  MOL1       -0.0570
      3 C29        13.2420  -17.6390   -7.9720 C.ar    1  MOL1       -0.0610
      4 C30        13.9660  -16.4510   -8.1090 C.ar    1  MOL1       -0.0480
      5 C31        15.2850  -16.3770   -7.6480 C.ar    1  MOL1        0.0180
      6 Br32       16.2820  -14.7580   -7.8570 Br      1  MOL1       -0.0510
      7 C33        15.8770  -17.4890   -7.0410 C.ar    1  MOL1       -0.0430
      8  C6        15.7630  -19.8810   -6.1850 C.3     1  MOL1        0.0630
      9  C5        15.6580  -21.1380   -7.0680 C.3     1  MOL1        0.0510
     10  C1        18.8210  -23.3920   -7.3610 C.3     1  MOL1        0.0060
     11  N2        17.5160  -22.8770   -6.9730 N.am    1  MOL1       -0.3590
     12  C3        17.0130  -21.6360   -7.4790 C.2     1  MOL1        0.2220
     13  O4        17.7070  -20.9520   -8.2810 O.2     1  MOL1       -0.2750
     14  N7        15.0920  -20.0970   -4.8980 N.am    1  MOL1       -0.3460
     15  C8        15.7130  -19.7930   -3.6470 C.2     1  MOL1        0.2580
     16  O9        16.8840  -19.3310   -3.6140 O.2     1  MOL1       -0.2710
     17 C10        14.9720  -20.0090   -2.3610 C.3     1  MOL1        0.1670
     18 O11        15.6050  -19.3030   -1.2970 O.3     1  MOL1       -0.4800
     19 C12        14.8750  -18.5850   -0.3460 C.ar    1  MOL1        0.1660
     20 C13        14.7550  -17.1790   -0.4250 C.ar    1  MOL1        0.0120
     21 C21        13.9460  -16.5060    0.5070 C.ar    1  MOL1       -0.0540
     22 C22        13.3060  -17.2100    1.5270 C.ar    1  MOL1       -0.0580
     23 C23        13.4660  -18.5920    1.6330 C.ar    1  MOL1       -0.0160
     24 C24        14.2550  -19.2890    0.7000 C.ar    1  MOL1        0.1610
     25 C14        15.4760  -16.3760   -1.4850 C.3     1  MOL1        0.0280
     26 N15        14.7270  -16.4120   -2.7570 N.3     1  MOL1       -0.2870
     27 C16        15.4510  -15.7110   -3.8320 C.3     1  MOL1        0.0640
     28 C17        14.3960  -14.6270   -3.9360 C.3     1  MOL1        0.2720
     29 F18        13.7030  -14.6400   -5.1340 F       1  MOL1       -0.2040
     30 F19        14.8480  -13.3720   -3.5610 F       1  MOL1       -0.2040
     31 C20        13.6880  -15.3700   -2.8200 C.3     1  MOL1        0.0640
     32 O25        14.4420  -20.6770    0.7720 O.3     1  MOL1       -0.4930
     33 C26        13.4120  -21.6400    0.5750 C.3     1  MOL1        0.0780
@<TRIPOS>BOND
     1    13    12    2
     2     4     3   ar
     3     4     5   ar
     4     3     2   ar
     5     6     5    1
     6     5     7   ar
     7    12     9    1
     8    12    11   am
     9     2     1   ar
    10    10    11    1
    11     9     8    1
    12     7     1   ar
    13     1     8    1
    14     8    14    1
    15    29    28    1
    16    14    15   am
    17    28    27    1
    18    28    30    1
    19    28    31    1
    20    27    26    1
    21    15    16    2
    22    15    17    1
    23    31    26    1
    24    26    25    1
    25    17    18    1
    26    25    20    1
    27    18    19    1
    28    20    19   ar
    29    20    21   ar
    30    19    24   ar
    31    21    22   ar
    32    33    32    1
    33    24    32    1
    34    24    23   ar
    35    22    23   ar
