@<TRIPOS>MOLECULE
L3024_0_out.pdbqt
 33 35 0 0 0
SMALL
GASTEIGER

@<TRIPOS>ATOM
      1 C27         6.3430  -20.0720   -8.6330 C.ar    1  MOL1       -0.0240
      2 C28         5.6670  -19.7220   -7.4510 C.ar    1  MOL1       -0.0570
      3 C29         4.3930  -20.2370   -7.1860 C.ar    1  MOL1       -0.0610
      4 C30         3.7830  -21.1040   -8.0970 C.ar    1  MOL1       -0.0480
      5 C31         4.4470  -21.4620   -9.2760 C.ar    1  MOL1        0.0180
      6 Br32        3.6210  -22.6660  -10.5120 Br      1  MOL1       -0.0510
      7 C33         5.7180  -20.9450   -9.5460 C.ar    1  MOL1       -0.0430
      8  C6         7.6890  -19.4540   -8.9470 C.3     1  MOL1        0.0630
      9  C5         7.9190  -19.4350  -10.4680 C.3     1  MOL1        0.0510
     10  C1         6.7140  -16.6950  -12.9620 C.3     1  MOL1        0.0060
     11  N2         7.0410  -17.9840  -12.3690 N.am    1  MOL1       -0.3590
     12  C3         7.6020  -18.0900  -11.0560 C.2     1  MOL1        0.2220
     13  O4         7.8330  -17.0500  -10.3810 O.2     1  MOL1       -0.2750
     14  N7         8.7590  -20.1970   -8.2720 N.am    1  MOL1       -0.3460
     15  C8        10.0370  -19.6220   -7.9940 C.2     1  MOL1        0.2580
     16  O9        10.2890  -18.4370   -8.3390 O.2     1  MOL1       -0.2710
     17 C10        11.0870  -20.4170   -7.2780 C.3     1  MOL1        0.1670
     18 O11        12.2950  -20.4450   -8.0350 O.3     1  MOL1       -0.4800
     19 C12        13.5520  -20.4840   -7.4250 C.ar    1  MOL1        0.1660
     20 C13        14.2930  -19.3010   -7.2000 C.ar    1  MOL1        0.0120
     21 C21        15.5150  -19.3780   -6.5120 C.ar    1  MOL1       -0.0540
     22 C22        16.0170  -20.6110   -6.0970 C.ar    1  MOL1       -0.0580
     23 C23        15.3090  -21.7830   -6.3640 C.ar    1  MOL1       -0.0160
     24 C24        14.0720  -21.7290   -7.0340 C.ar    1  MOL1        0.1610
     25 C14        13.8060  -17.9520   -7.6830 C.3     1  MOL1        0.0280
     26 N15        13.7130  -17.0040   -6.5540 N.3     1  MOL1       -0.2870
     27 C16        12.7940  -15.8930   -6.8550 C.3     1  MOL1        0.0640
     28 C17        13.9110  -14.8680   -6.8410 C.3     1  MOL1        0.2720
     29 F18        13.8210  -13.9620   -5.7980 F       1  MOL1       -0.2040
     30 F19        14.1470  -14.2830   -8.0740 F       1  MOL1       -0.2040
     31 C20        14.8270  -16.0400   -6.5450 C.3     1  MOL1        0.0640
     32 O25        13.3290  -22.8820   -7.3220 O.3     1  MOL1       -0.4930
     33 C26        12.5710  -23.6130   -6.3640 C.3     1  MOL1        0.0780
@<TRIPOS>BOND
     1    10    11    1
     2    11    12   am
     3    12     9    1
     4    12    13    2
     5     6     5    1
     6     9     8    1
     7     7     5   ar
     8     7     1   ar
     9     5     4   ar
    10     8     1    1
    11     8    14    1
    12     1     2   ar
    13    16    15    2
    14    14    15   am
    15     4     3   ar
    16    30    28    1
    17    18    19    1
    18    18    17    1
    19    15    17    1
    20    25    20    1
    21    25    26    1
    22     2     3   ar
    23    19    20   ar
    24    19    24   ar
    25    32    24    1
    26    32    33    1
    27    20    21   ar
    28    24    23   ar
    29    27    28    1
    30    27    26    1
    31    28    31    1
    32    28    29    1
    33    26    31    1
    34    21    22   ar
    35    23    22   ar
