@<TRIPOS>MOLECULE
L3024_0_out.pdbqt
 33 35 0 0 0
SMALL
GASTEIGER

@<TRIPOS>ATOM
      1 C27        15.5570  -18.1630   -3.7090 C.ar    1  MOL1       -0.0240
      2 C28        15.7220  -19.5280   -3.4110 C.ar    1  MOL1       -0.0570
      3 C29        15.5080  -20.0000   -2.1120 C.ar    1  MOL1       -0.0610
      4 C30        15.1290  -19.1150   -1.0980 C.ar    1  MOL1       -0.0480
      5 C31        14.9580  -17.7560   -1.3810 C.ar    1  MOL1        0.0180
      6 Br32       14.4180  -16.5490    0.0020 Br      1  MOL1       -0.0510
      7 C33        15.1760  -17.2800   -2.6780 C.ar    1  MOL1       -0.0430
      8  C6        15.8600  -17.6490   -5.1000 C.3     1  MOL1        0.0630
      9  C5        16.2530  -16.1620   -5.0380 C.3     1  MOL1        0.0510
     10  C1        14.6300  -14.2060   -7.9910 C.3     1  MOL1        0.0060
     11  N2        14.8300  -14.8740   -6.7120 N.am    1  MOL1       -0.3590
     12  C3        16.0750  -15.4900   -6.3690 C.2     1  MOL1        0.2220
     13  O4        17.0370  -15.4700   -7.1860 O.2     1  MOL1       -0.2750
     14  N7        14.7000  -17.8410   -5.9770 N.am    1  MOL1       -0.3460
     15  C8        14.7410  -18.6790   -7.1340 C.2     1  MOL1        0.2580
     16  O9        15.8030  -19.2820   -7.4440 O.2     1  MOL1       -0.2710
     17 C10        13.5180  -18.8610   -7.9820 C.3     1  MOL1        0.1670
     18 O11        12.5220  -19.5920   -7.2710 O.3     1  MOL1       -0.4800
     19 C12        12.0100  -20.8030   -7.7460 C.ar    1  MOL1        0.1660
     20 C13        10.8870  -20.8350   -8.6030 C.ar    1  MOL1        0.0120
     21 C21        10.4550  -22.0680   -9.1210 C.ar    1  MOL1       -0.0540
     22 C22        11.0950  -23.2520   -8.7560 C.ar    1  MOL1       -0.0580
     23 C23        12.1720  -23.2230   -7.8700 C.ar    1  MOL1       -0.0160
     24 C24        12.6350  -21.9980   -7.3550 C.ar    1  MOL1        0.1610
     25 C14        10.1340  -19.5770   -8.9780 C.3     1  MOL1        0.0280
     26 N15         9.2360  -19.8350  -10.1220 N.3     1  MOL1       -0.2870
     27 C16         9.4050  -18.8260  -11.1820 C.3     1  MOL1        0.0640
     28 C17         8.0070  -18.2750  -10.9810 C.3     1  MOL1        0.2720
     29 F18         7.1640  -18.4940  -12.0570 F       1  MOL1       -0.2040
     30 F19         7.9840  -16.9750  -10.5050 F       1  MOL1       -0.2040
     31 C20         7.8770  -19.3190   -9.8890 C.3     1  MOL1        0.0640
     32 O25        13.7140  -21.9260   -6.4620 O.3     1  MOL1       -0.4930
     33 C26        14.9230  -22.6660   -6.5960 C.3     1  MOL1        0.0780
@<TRIPOS>BOND
     1    29    28    1
     2    27    28    1
     3    27    26    1
     4    28    30    1
     5    28    31    1
     6    26    31    1
     7    26    25    1
     8    21    22   ar
     9    21    20   ar
    10    25    20    1
    11    22    23   ar
    12    20    19   ar
    13    10    11    1
    14    17    18    1
    15    17    15    1
    16    23    24   ar
    17    19    24   ar
    18    19    18    1
    19    16    15    2
    20    24    32    1
    21    13    12    2
    22    15    14   am
    23    11    12   am
    24    33    32    1
    25    12     9    1
    26    14     8    1
    27     8     9    1
    28     8     1    1
    29     1     2   ar
    30     1     7   ar
    31     2     3   ar
    32     7     5   ar
    33     3     4   ar
    34     5     4   ar
    35     5     6    1
