@<TRIPOS>MOLECULE
L3024_0_out.pdbqt
 33 35 0 0 0
SMALL
GASTEIGER

@<TRIPOS>ATOM
      1 C27         7.0880  -19.7050  -10.7450 C.ar    1  MOL1       -0.0240
      2 C28         7.2080  -20.9360  -11.4140 C.ar    1  MOL1       -0.0570
      3 C29         6.6250  -22.0910  -10.8800 C.ar    1  MOL1       -0.0610
      4 C30         5.9190  -22.0280   -9.6760 C.ar    1  MOL1       -0.0480
      5 C31         5.7890  -20.8080   -9.0030 C.ar    1  MOL1        0.0180
      6 Br32        4.8020  -20.7190   -7.3660 Br      1  MOL1       -0.0510
      7 C33         6.3740  -19.6530   -9.5300 C.ar    1  MOL1       -0.0430
      8  C6         7.7820  -18.4760  -11.2910 C.3     1  MOL1        0.0630
      9  C5         9.3060  -18.6140  -11.1250 C.3     1  MOL1        0.0510
     10  C1        10.4390  -19.9590   -7.6500 C.3     1  MOL1        0.0060
     11  N2        10.0420  -19.8920   -9.0490 N.am    1  MOL1       -0.3590
     12  C3         9.7010  -18.6510   -9.6770 C.2     1  MOL1        0.2220
     13  O4         9.7340  -17.5780   -9.0170 O.2     1  MOL1       -0.2750
     14  N7         7.2950  -17.2720  -10.6080 N.am    1  MOL1       -0.3460
     15  C8         6.5540  -16.2520  -11.2820 C.2     1  MOL1        0.2580
     16  O9         6.3010  -16.3580  -12.5110 O.2     1  MOL1       -0.2710
     17 C10         6.0570  -15.0540  -10.5300 C.3     1  MOL1        0.1670
     18 O11         4.6830  -14.8150  -10.8240 O.3     1  MOL1       -0.4800
     19 C12         3.7030  -14.7960   -9.8280 C.ar    1  MOL1        0.1660
     20 C13         2.4550  -14.1680  -10.0410 C.ar    1  MOL1        0.0120
     21 C21         1.4710  -14.2420   -9.0410 C.ar    1  MOL1       -0.0540
     22 C22         1.7360  -14.8860   -7.8330 C.ar    1  MOL1       -0.0580
     23 C23         2.9870  -15.4610   -7.6040 C.ar    1  MOL1       -0.0160
     24 C24         3.9810  -15.4170   -8.5990 C.ar    1  MOL1        0.1610
     25 C14         2.1490  -13.4160  -11.3170 C.3     1  MOL1        0.0280
     26 N15         2.0030  -11.9720  -11.0420 N.3     1  MOL1       -0.2870
     27 C16         0.8580  -11.3960  -11.7680 C.3     1  MOL1        0.0640
     28 C17         1.7500  -10.5280  -12.6340 C.3     1  MOL1        0.2720
     29 F18         1.6050   -9.1720  -12.3980 F       1  MOL1       -0.2040
     30 F19         1.7260  -10.8700  -13.9770 F       1  MOL1       -0.2040
     31 C20         2.9030  -11.1540  -11.8740 C.3     1  MOL1        0.0640
     32 O25         5.2510  -15.9820   -8.4090 O.3     1  MOL1       -0.4930
     33 C26         5.6120  -16.7970   -7.2990 C.3     1  MOL1        0.0780
@<TRIPOS>BOND
     1    30    28    1
     2    28    29    1
     3    28    31    1
     4    28    27    1
     5    16    15    2
     6    31    26    1
     7    27    26    1
     8     2     3   ar
     9     2     1   ar
    10    25    26    1
    11    25    20    1
    12     8     9    1
    13     8     1    1
    14     8    14    1
    15    15    14   am
    16    15    17    1
    17     9    12    1
    18     3     4   ar
    19    18    17    1
    20    18    19    1
    21     1     7   ar
    22    20    19   ar
    23    20    21   ar
    24    19    24   ar
    25    12    11   am
    26    12    13    2
    27     4     5   ar
    28     7     5   ar
    29    11    10    1
    30    21    22   ar
    31     5     6    1
    32    24    32    1
    33    24    23   ar
    34    32    33    1
    35    22    23   ar
