@<TRIPOS>MOLECULE
L3024_0_out.pdbqt
 33 35 0 0 0
SMALL
GASTEIGER

@<TRIPOS>ATOM
      1 C27         7.2950  -16.9420  -10.0460 C.ar    1  MOL1       -0.0240
      2 C28         7.7760  -17.8710  -10.9870 C.ar    1  MOL1       -0.0570
      3 C29         7.4290  -17.7550  -12.3370 C.ar    1  MOL1       -0.0610
      4 C30         6.6000  -16.7130  -12.7610 C.ar    1  MOL1       -0.0480
      5 C31         6.1170  -15.7810  -11.8370 C.ar    1  MOL1        0.0180
      6 Br32        4.9990  -14.3420  -12.4210 Br      1  MOL1       -0.0510
      7 C33         6.4570  -15.8960  -10.4850 C.ar    1  MOL1       -0.0430
      8  C6         7.6150  -17.1170   -8.5780 C.3     1  MOL1        0.0630
      9  C5         6.4350  -16.6290   -7.7190 C.3     1  MOL1        0.0510
     10  C1         4.7410  -20.1370   -7.6920 C.3     1  MOL1        0.0060
     11  N2         5.7100  -19.0660   -7.8760 N.am    1  MOL1       -0.3590
     12  C3         5.4100  -17.7100   -7.5270 C.2     1  MOL1        0.2220
     13  O4         4.2800  -17.4140   -7.0510 O.2     1  MOL1       -0.2750
     14  N7         8.8400  -16.3860   -8.2340 N.am    1  MOL1       -0.3460
     15  C8        10.0490  -17.0460   -7.8530 C.2     1  MOL1        0.2580
     16  O9        10.0930  -18.3040   -7.7900 O.2     1  MOL1       -0.2710
     17 C10        11.2800  -16.2510   -7.5370 C.3     1  MOL1        0.1670
     18 O11        12.3180  -17.1060   -7.0640 O.3     1  MOL1       -0.4800
     19 C12        13.6360  -16.9930   -7.5160 C.ar    1  MOL1        0.1660
     20 C13        14.2670  -18.0550   -8.2030 C.ar    1  MOL1        0.0120
     21 C21        15.5640  -17.8690   -8.7090 C.ar    1  MOL1       -0.0540
     22 C22        16.2420  -16.6690   -8.4950 C.ar    1  MOL1       -0.0580
     23 C23        15.6360  -15.6400   -7.7730 C.ar    1  MOL1       -0.0160
     24 C24        14.3300  -15.7960   -7.2740 C.ar    1  MOL1        0.1610
     25 C14        13.5840  -19.3890   -8.4080 C.3     1  MOL1        0.0280
     26 N15        13.7450  -20.2400   -7.2110 N.3     1  MOL1       -0.2870
     27 C16        13.9740  -21.6490   -7.5750 C.3     1  MOL1        0.0640
     28 C17        12.6540  -22.0940   -6.9750 C.3     1  MOL1        0.2720
     29 F18        12.7950  -22.9090   -5.8650 F       1  MOL1       -0.2040
     30 F19        11.7490  -22.5700   -7.9090 F       1  MOL1       -0.2040
     31 C20        12.4500  -20.6320   -6.6290 C.3     1  MOL1        0.0640
     32 O25        13.6850  -14.7870   -6.5440 O.3     1  MOL1       -0.4930
     33 C26        13.7360  -14.6620   -5.1260 C.3     1  MOL1        0.0780
@<TRIPOS>BOND
     1     4     3   ar
     2     4     5   ar
     3     6     5    1
     4     3     2   ar
     5     5     7   ar
     6     2     1   ar
     7     7     1   ar
     8     1     8    1
     9    21    22   ar
    10    21    20   ar
    11     8    14    1
    12     8     9    1
    13    22    23   ar
    14    25    20    1
    15    25    26    1
    16    14    15   am
    17    20    19   ar
    18    30    28    1
    19    11    10    1
    20    11    12   am
    21    15    16    2
    22    15    17    1
    23    23    24   ar
    24     9    12    1
    25    27    26    1
    26    27    28    1
    27    17    18    1
    28    12    13    2
    29    19    24   ar
    30    19    18    1
    31    24    32    1
    32    26    31    1
    33    28    31    1
    34    28    29    1
    35    32    33    1
