@<TRIPOS>MOLECULE
L3024_0_out.pdbqt
 33 35 0 0 0
SMALL
GASTEIGER

@<TRIPOS>ATOM
      1 C27        15.3100  -16.7050   -3.6600 C.ar    1  MOL1       -0.0240
      2 C28        14.8410  -16.1540   -4.8670 C.ar    1  MOL1       -0.0570
      3 C29        14.2850  -14.8710   -4.8900 C.ar    1  MOL1       -0.0610
      4 C30        14.1910  -14.1260   -3.7110 C.ar    1  MOL1       -0.0480
      5 C31        14.6570  -14.6600   -2.5050 C.ar    1  MOL1        0.0180
      6 Br32       14.5480  -13.6310   -0.8960 Br      1  MOL1       -0.0510
      7 C33        15.2090  -15.9450   -2.4770 C.ar    1  MOL1       -0.0430
      8  C6        15.8440  -18.1210   -3.6300 C.3     1  MOL1        0.0630
      9  C5        16.1740  -18.5300   -2.1830 C.3     1  MOL1        0.0510
     10  C1        14.7050  -21.3810    0.0260 C.3     1  MOL1        0.0060
     11  N2        15.4530  -20.2120   -0.4120 N.am    1  MOL1       -0.3590
     12  C3        15.3980  -19.7450   -1.7650 C.2     1  MOL1        0.2220
     13  O4        14.6930  -20.3530   -2.6160 O.2     1  MOL1       -0.2750
     14  N7        17.0320  -18.2340   -4.4830 N.am    1  MOL1       -0.3460
     15  C8        17.2410  -19.3350   -5.3690 C.2     1  MOL1        0.2580
     16  O9        16.3940  -20.2660   -5.4360 O.2     1  MOL1       -0.2710
     17 C10        18.4610  -19.3890   -6.2380 C.3     1  MOL1        0.1670
     18 O11        18.1160  -19.8020   -7.5580 O.3     1  MOL1       -0.4800
     19 C12        18.3860  -19.0090   -8.6770 C.ar    1  MOL1        0.1660
     20 C13        17.5400  -17.9330   -9.0310 C.ar    1  MOL1        0.0120
     21 C21        17.8920  -17.1140  -10.1170 C.ar    1  MOL1       -0.0540
     22 C22        19.0350  -17.3860  -10.8680 C.ar    1  MOL1       -0.0580
     23 C23        19.8410  -18.4790  -10.5480 C.ar    1  MOL1       -0.0160
     24 C24        19.5200  -19.3020   -9.4520 C.ar    1  MOL1        0.1610
     25 C14        16.2640  -17.6390   -8.2730 C.3     1  MOL1        0.0280
     26 N15        15.0960  -18.1750   -9.0020 N.3     1  MOL1       -0.2870
     27 C16        13.8310  -17.6720   -8.4420 C.3     1  MOL1        0.0640
     28 C17        13.4090  -19.0490   -7.9670 C.3     1  MOL1        0.2720
     29 F18        12.3030  -19.5510   -8.6300 F       1  MOL1       -0.2040
     30 F19        13.3380  -19.1660   -6.5880 F       1  MOL1       -0.2040
     31 C20        14.7280  -19.5260   -8.5440 C.3     1  MOL1        0.0640
     32 O25        20.3030  -20.4100   -9.0980 O.3     1  MOL1       -0.4930
     33 C26        20.5090  -21.5490   -9.9270 C.3     1  MOL1        0.0780
@<TRIPOS>BOND
     1    22    23   ar
     2    22    21   ar
     3    23    24   ar
     4    21    20   ar
     5    33    32    1
     6    24    32    1
     7    24    19   ar
     8    20    19   ar
     9    20    25    1
    10    26    31    1
    11    26    27    1
    12    26    25    1
    13    19    18    1
    14    29    28    1
    15    31    28    1
    16    27    28    1
    17    28    30    1
    18    18    17    1
    19    17    15    1
    20    16    15    2
    21    15    14   am
    22     3     2   ar
    23     3     4   ar
    24     2     1   ar
    25    14     8    1
    26     4     5   ar
    27     1     8    1
    28     1     7   ar
    29     8     9    1
    30    13    12    2
    31     5     7   ar
    32     5     6    1
    33     9    12    1
    34    12    11   am
    35    11    10    1
