@<TRIPOS>MOLECULE
L3024_0_out.pdbqt
 33 35 0 0 0
SMALL
GASTEIGER

@<TRIPOS>ATOM
      1 C27         8.3870  -19.7060   -9.0290 C.ar    1  MOL1       -0.0240
      2 C28         7.2060  -20.1230   -8.3880 C.ar    1  MOL1       -0.0570
      3 C29         6.7380  -21.4320   -8.5510 C.ar    1  MOL1       -0.0610
      4 C30         7.4420  -22.3340   -9.3540 C.ar    1  MOL1       -0.0480
      5 C31         8.6190  -21.9320   -9.9940 C.ar    1  MOL1        0.0180
      6 Br32        9.5940  -23.1740  -11.0740 Br      1  MOL1       -0.0510
      7 C33         9.0880  -20.6240   -9.8370 C.ar    1  MOL1       -0.0430
      8  C6         8.8480  -18.2690   -8.9060 C.3     1  MOL1        0.0630
      9  C5         8.0570  -17.3770   -9.8800 C.3     1  MOL1        0.0510
     10  C1         5.6570  -16.1150   -7.0830 C.3     1  MOL1        0.0060
     11  N2         6.7650  -16.7600   -7.7740 N.am    1  MOL1       -0.3590
     12  C3         6.8980  -16.7100   -9.1980 C.2     1  MOL1        0.2220
     13  O4         6.0390  -16.1010   -9.8930 O.2     1  MOL1       -0.2750
     14  N7        10.2870  -18.1730   -9.1700 N.am    1  MOL1       -0.3460
     15  C8        11.1900  -17.5140   -8.2790 C.2     1  MOL1        0.2580
     16  O9        10.7620  -16.9770   -7.2230 O.2     1  MOL1       -0.2710
     17 C10        12.6570  -17.4670   -8.5840 C.3     1  MOL1        0.1670
     18 O11        13.4130  -17.9500   -7.4760 O.3     1  MOL1       -0.4800
     19 C12        14.8110  -17.9450   -7.4720 C.ar    1  MOL1        0.1660
     20 C13        15.5360  -16.8430   -6.9630 C.ar    1  MOL1        0.0120
     21 C21        16.9380  -16.9130   -6.9070 C.ar    1  MOL1       -0.0540
     22 C22        17.6110  -18.0350   -7.3910 C.ar    1  MOL1       -0.0580
     23 C23        16.8960  -19.1000   -7.9390 C.ar    1  MOL1       -0.0160
     24 C24        15.4900  -19.0610   -7.9880 C.ar    1  MOL1        0.1610
     25 C14        14.8440  -15.5880   -6.4790 C.3     1  MOL1        0.0280
     26 N15        14.0440  -15.8740   -5.2700 N.3     1  MOL1       -0.2870
     27 C16        13.7390  -14.6450   -4.5190 C.3     1  MOL1        0.0640
     28 C17        14.5800  -15.0740   -3.3330 C.3     1  MOL1        0.2720
     29 F18        13.8420  -15.3240   -2.1890 F       1  MOL1       -0.2040
     30 F19        15.6920  -14.2750   -3.1200 F       1  MOL1       -0.2040
     31 C20        14.8810  -16.3200   -4.1430 C.3     1  MOL1        0.0640
     32 O25        14.7330  -20.1090   -8.5310 O.3     1  MOL1       -0.4930
     33 C26        14.6130  -21.4020   -7.9480 C.3     1  MOL1        0.0780
@<TRIPOS>BOND
     1     6     5    1
     2     5     7   ar
     3     5     4   ar
     4    13    12    2
     5     9    12    1
     6     9     8    1
     7     7     1   ar
     8     4     3   ar
     9    12    11   am
    10    14     8    1
    11    14    15   am
    12     1     8    1
    13     1     2   ar
    14    17    15    1
    15    17    18    1
    16     3     2   ar
    17    32    24    1
    18    32    33    1
    19    15    16    2
    20    24    23   ar
    21    24    19   ar
    22    23    22   ar
    23    11    10    1
    24    18    19    1
    25    19    20   ar
    26    22    21   ar
    27    20    21   ar
    28    20    25    1
    29    25    26    1
    30    26    27    1
    31    26    31    1
    32    27    28    1
    33    31    28    1
    34    28    30    1
    35    28    29    1
