@<TRIPOS>MOLECULE
L3024_0_out.pdbqt
 33 35 0 0 0
SMALL
GASTEIGER

@<TRIPOS>ATOM
      1 C27         6.9710  -17.2870   -9.9540 C.ar    1  MOL1       -0.0240
      2 C28         7.4920  -18.1560  -10.9300 C.ar    1  MOL1       -0.0570
      3 C29         7.3320  -17.8700  -12.2900 C.ar    1  MOL1       -0.0610
      4 C30         6.6530  -16.7160  -12.6890 C.ar    1  MOL1       -0.0480
      5 C31         6.1330  -15.8410  -11.7290 C.ar    1  MOL1        0.0180
      6 Br32        5.2220  -14.2500  -12.2750 Br      1  MOL1       -0.0510
      7 C33         6.2860  -16.1260  -10.3680 C.ar    1  MOL1       -0.0430
      8  C6         7.0850  -17.6400   -8.4870 C.3     1  MOL1        0.0630
      9  C5         6.5450  -16.4860   -7.6230 C.3     1  MOL1        0.0510
     10  C1         2.7830  -15.6790   -7.0170 C.3     1  MOL1        0.0060
     11  N2         4.2040  -15.5370   -7.3010 N.am    1  MOL1       -0.3590
     12  C3         5.0860  -16.6640   -7.3160 C.2     1  MOL1        0.2220
     13  O4         4.6410  -17.8190   -7.0730 O.2     1  MOL1       -0.2750
     14  N7         8.4790  -17.9350   -8.1420 N.am    1  MOL1       -0.3460
     15  C8         9.4450  -16.9100   -7.9000 C.2     1  MOL1        0.2580
     16  O9         9.1190  -15.6970   -7.9880 O.2     1  MOL1       -0.2710
     17 C10        10.8520  -17.2670   -7.5240 C.3     1  MOL1        0.1670
     18 O11        11.4830  -17.9870   -8.5800 O.3     1  MOL1       -0.4800
     19 C12        12.3820  -19.0280   -8.3340 C.ar    1  MOL1        0.1660
     20 C13        13.7710  -18.7840   -8.2230 C.ar    1  MOL1        0.0120
     21 C21        14.6290  -19.8470   -7.8960 C.ar    1  MOL1       -0.0540
     22 C22        14.1260  -21.1380   -7.7300 C.ar    1  MOL1       -0.0580
     23 C23        12.7630  -21.3850   -7.8900 C.ar    1  MOL1       -0.0160
     24 C24        11.8810  -20.3330   -8.1970 C.ar    1  MOL1        0.1610
     25 C14        14.3580  -17.4090   -8.4490 C.3     1  MOL1        0.0280
     26 N15        15.5070  -17.1850   -7.5470 N.3     1  MOL1       -0.2870
     27 C16        15.3660  -15.9280   -6.7920 C.3     1  MOL1        0.0640
     28 C17        16.5550  -15.2930   -7.4850 C.3     1  MOL1        0.2720
     29 F18        17.6300  -15.0600   -6.6440 F       1  MOL1       -0.2040
     30 F19        16.2230  -14.2110   -8.2840 F       1  MOL1       -0.2040
     31 C20        16.6600  -16.5970   -8.2520 C.3     1  MOL1        0.0640
     32 O25        10.5040  -20.5400   -8.3660 O.3     1  MOL1       -0.4930
     33 C26         9.9360  -21.4820   -9.2700 C.3     1  MOL1        0.0780
@<TRIPOS>BOND
     1     4     3   ar
     2     4     5   ar
     3     3     2   ar
     4     6     5    1
     5     5     7   ar
     6     2     1   ar
     7     7     1   ar
     8     1     8    1
     9    33    32    1
    10    18    19    1
    11    18    17    1
    12     8    14    1
    13     8     9    1
    14    25    20    1
    15    25    26    1
    16    32    24    1
    17    19    20   ar
    18    19    24   ar
    19    30    28    1
    20    31    26    1
    21    31    28    1
    22    20    21   ar
    23    24    23   ar
    24    14    15   am
    25    16    15    2
    26    15    17    1
    27    21    22   ar
    28    23    22   ar
    29     9    12    1
    30    26    27    1
    31    28    27    1
    32    28    29    1
    33    12    11   am
    34    12    13    2
    35    11    10    1
