@<TRIPOS>MOLECULE
L3024_0_out.pdbqt
 33 35 0 0 0
SMALL
GASTEIGER

@<TRIPOS>ATOM
      1 C27         5.4050  -14.8620  -11.6080 C.ar    1  MOL1       -0.0240
      2 C28         5.5640  -13.9790  -12.6920 C.ar    1  MOL1       -0.0570
      3 C29         4.5830  -13.0240  -12.9770 C.ar    1  MOL1       -0.0610
      4 C30         3.4350  -12.9400  -12.1850 C.ar    1  MOL1       -0.0480
      5 C31         3.2660  -13.8100  -11.1010 C.ar    1  MOL1        0.0180
      6 Br32        1.7040  -13.6800  -10.0040 Br      1  MOL1       -0.0510
      7 C33         4.2420  -14.7700  -10.8170 C.ar    1  MOL1       -0.0430
      8  C6         6.4370  -15.9390  -11.3510 C.3     1  MOL1        0.0630
      9  C5         6.6830  -16.7500  -12.6360 C.3     1  MOL1        0.0510
     10  C1         9.9260  -18.8890  -12.3470 C.3     1  MOL1        0.0060
     11  N2         9.0110  -17.7840  -12.5910 N.am    1  MOL1       -0.3590
     12  C3         7.6000  -17.9130  -12.3850 C.2     1  MOL1        0.2220
     13  O4         7.1160  -19.0080  -11.9870 O.2     1  MOL1       -0.2750
     14  N7         5.9940  -16.8170  -10.2630 N.am    1  MOL1       -0.3460
     15  C8         6.8200  -17.1250   -9.1380 C.2     1  MOL1        0.2580
     16  O9         7.9820  -16.6470   -9.0540 O.2     1  MOL1       -0.2710
     17 C10         6.3080  -18.0070   -8.0400 C.3     1  MOL1        0.1670
     18 O11         7.2340  -19.0570   -7.7700 O.3     1  MOL1       -0.4800
     19 C12         7.4000  -20.1400   -8.6370 C.ar    1  MOL1        0.1660
     20 C13         6.2880  -20.8690   -9.1180 C.ar    1  MOL1        0.0120
     21 C21         6.4950  -21.9000  -10.0490 C.ar    1  MOL1       -0.0540
     22 C22         7.7850  -22.2350  -10.4600 C.ar    1  MOL1       -0.0580
     23 C23         8.8850  -21.5480   -9.9460 C.ar    1  MOL1       -0.0160
     24 C24         8.7010  -20.4980   -9.0270 C.ar    1  MOL1        0.1610
     25 C14         4.8790  -20.5700   -8.6550 C.3     1  MOL1        0.0280
     26 N15         4.1240  -21.8240   -8.4560 N.3     1  MOL1       -0.2870
     27 C16         2.8100  -21.7770   -9.1190 C.3     1  MOL1        0.0640
     28 C17         2.0620  -21.8220   -7.8010 C.3     1  MOL1        0.2720
     29 F18         1.3350  -22.9850   -7.6140 F       1  MOL1       -0.2040
     30 F19         1.3520  -20.6650   -7.5230 F       1  MOL1       -0.2040
     31 C20         3.4330  -21.8560   -7.1550 C.3     1  MOL1        0.0640
     32 O25         9.7800  -19.7830   -8.4860 O.3     1  MOL1       -0.4930
     33 C26        11.0010  -19.5260   -9.1720 C.3     1  MOL1        0.0780
@<TRIPOS>BOND
     1     3     2   ar
     2     3     4   ar
     3     2     1   ar
     4     9    12    1
     5     9     8    1
     6    11    12   am
     7    11    10    1
     8    12    13    2
     9     4     5   ar
    10     1     8    1
    11     1     7   ar
    12     8    14    1
    13     5     7   ar
    14     5     6    1
    15    22    21   ar
    16    22    23   ar
    17    14    15   am
    18    21    20   ar
    19    23    24   ar
    20    33    32    1
    21    15    16    2
    22    15    17    1
    23    27    26    1
    24    27    28    1
    25    20    25    1
    26    20    19   ar
    27    24    19   ar
    28    24    32    1
    29    25    26    1
    30    19    18    1
    31    26    31    1
    32    17    18    1
    33    28    29    1
    34    28    30    1
    35    28    31    1
