@<TRIPOS>MOLECULE
L3024_0_out.pdbqt
 33 35 0 0 0
SMALL
GASTEIGER

@<TRIPOS>ATOM
      1 C27         9.0820  -18.3920   -9.5160 C.ar    1  MOL1       -0.0240
      2 C28         8.8330  -17.4390   -8.5120 C.ar    1  MOL1       -0.0570
      3 C29         7.9730  -16.3620   -8.7570 C.ar    1  MOL1       -0.0610
      4 C30         7.3550  -16.2280  -10.0030 C.ar    1  MOL1       -0.0480
      5 C31         7.5920  -17.1710  -11.0090 C.ar    1  MOL1        0.0180
      6 Br32        6.7290  -16.9980  -12.7070 Br      1  MOL1       -0.0510
      7 C33         8.4550  -18.2450  -10.7700 C.ar    1  MOL1       -0.0430
      8  C6        10.0690  -19.5120   -9.2670 C.3     1  MOL1        0.0630
      9  C5         9.3270  -20.7710   -8.7820 C.3     1  MOL1        0.0510
     10  C1        10.3200  -24.1960  -10.3500 C.3     1  MOL1        0.0060
     11  N2        10.1860  -23.0820   -9.4230 N.am    1  MOL1       -0.3590
     12  C3         9.4560  -21.8990   -9.7650 C.2     1  MOL1        0.2220
     13  O4         8.9110  -21.7980  -10.8980 O.2     1  MOL1       -0.2750
     14  N7        11.0750  -19.0950   -8.2850 N.am    1  MOL1       -0.3460
     15  C8        12.3260  -18.5170   -8.6630 C.2     1  MOL1        0.2580
     16  O9        12.6100  -18.3560   -9.8800 O.2     1  MOL1       -0.2710
     17 C10        13.3080  -18.0830   -7.6170 C.3     1  MOL1        0.1670
     18 O11        14.5900  -17.8580   -8.1980 O.3     1  MOL1       -0.4800
     19 C12        15.6980  -17.4900   -7.4310 C.ar    1  MOL1        0.1660
     20 C13        16.7650  -18.3910   -7.2090 C.ar    1  MOL1        0.0120
     21 C21        17.8950  -17.9540   -6.4980 C.ar    1  MOL1       -0.0540
     22 C22        17.9460  -16.6620   -5.9740 C.ar    1  MOL1       -0.0580
     23 C23        16.8700  -15.7910   -6.1510 C.ar    1  MOL1       -0.0160
     24 C24        15.7360  -16.2000   -6.8770 C.ar    1  MOL1        0.1610
     25 C14        16.7230  -19.8160   -7.7160 C.3     1  MOL1        0.0280
     26 N15        16.2930  -20.7330   -6.6420 N.3     1  MOL1       -0.2870
     27 C16        16.7040  -22.1210   -6.9170 C.3     1  MOL1        0.0640
     28 C17        15.2710  -22.5920   -7.0710 C.3     1  MOL1        0.2720
     29 F18        14.8650  -23.4690   -6.0800 F       1  MOL1       -0.2040
     30 F19        14.9570  -23.0100   -8.3540 F       1  MOL1       -0.2040
     31 C20        14.8890  -21.1510   -6.7970 C.3     1  MOL1        0.0640
     32 O25        14.6340  -15.3560   -7.0760 O.3     1  MOL1       -0.4930
     33 C26        14.6740  -14.1410   -7.8160 C.3     1  MOL1        0.0780
@<TRIPOS>BOND
     1     6     5    1
     2     5     7   ar
     3     5     4   ar
     4    13    12    2
     5     7     1   ar
     6    10    11    1
     7     4     3   ar
     8    16    15    2
     9    12    11   am
    10    12     9    1
    11     1     8    1
    12     1     2   ar
    13     8     9    1
    14     8    14    1
    15     3     2   ar
    16    15    14   am
    17    15    17    1
    18    30    28    1
    19    18    17    1
    20    18    19    1
    21    33    32    1
    22    25    20    1
    23    25    26    1
    24    19    20   ar
    25    19    24   ar
    26    20    21   ar
    27    32    24    1
    28    28    27    1
    29    28    31    1
    30    28    29    1
    31    27    26    1
    32    24    23   ar
    33    31    26    1
    34    21    22   ar
    35    23    22   ar
