@<TRIPOS>MOLECULE
L3024_0_out.pdbqt
 33 35 0 0 0
SMALL
GASTEIGER

@<TRIPOS>ATOM
      1 C27         9.6110  -21.5950   -9.0290 C.ar    1  MOL1       -0.0240
      2 C28         8.6320  -22.4580   -9.5540 C.ar    1  MOL1       -0.0570
      3 C29         8.9110  -23.8170   -9.7370 C.ar    1  MOL1       -0.0610
      4 C30        10.1680  -24.3260   -9.4000 C.ar    1  MOL1       -0.0480
      5 C31        11.1500  -23.4800   -8.8740 C.ar    1  MOL1        0.0180
      6 Br32       12.8630  -24.1830   -8.3920 Br      1  MOL1       -0.0510
      7 C33        10.8760  -22.1200   -8.6940 C.ar    1  MOL1       -0.0430
      8  C6         9.3260  -20.1140   -8.9020 C.3     1  MOL1        0.0630
      9  C5         8.0940  -19.7400   -9.7440 C.3     1  MOL1        0.0510
     10  C1         4.8410  -19.6420   -7.6040 C.3     1  MOL1        0.0060
     11  N2         5.9340  -20.1070   -8.4460 N.am    1  MOL1       -0.3590
     12  C3         6.9740  -19.2280   -8.8850 C.2     1  MOL1        0.2220
     13  O4         6.9580  -18.0120   -8.5490 O.2     1  MOL1       -0.2750
     14  N7        10.4950  -19.3340   -9.3210 N.am    1  MOL1       -0.3460
     15  C8        11.0440  -18.2820   -8.5250 C.2     1  MOL1        0.2580
     16  O9        10.5200  -17.9830   -7.4190 O.2     1  MOL1       -0.2710
     17 C10        12.2570  -17.5330   -8.9890 C.3     1  MOL1        0.1670
     18 O11        13.2390  -17.4840   -7.9570 O.3     1  MOL1       -0.4800
     19 C12        14.5190  -16.9670   -8.1750 C.ar    1  MOL1        0.1660
     20 C13        15.5320  -17.7510   -8.7710 C.ar    1  MOL1        0.0120
     21 C21        16.7800  -17.1670   -9.0440 C.ar    1  MOL1       -0.0540
     22 C22        17.0340  -15.8420   -8.6880 C.ar    1  MOL1       -0.0580
     23 C23        16.0490  -15.0850   -8.0550 C.ar    1  MOL1       -0.0160
     24 C24        14.7850  -15.6430   -7.7890 C.ar    1  MOL1        0.1610
     25 C14        15.3110  -19.2060   -9.1220 C.3     1  MOL1        0.0280
     26 N15        16.2270  -20.0690   -8.3490 N.3     1  MOL1       -0.2870
     27 C16        15.7940  -21.4760   -8.3700 C.3     1  MOL1        0.0640
     28 C17        15.4970  -21.4830   -6.8830 C.3     1  MOL1        0.2720
     29 F18        16.3370  -22.3050   -6.1530 F       1  MOL1       -0.2040
     30 F19        14.1540  -21.6450   -6.5840 F       1  MOL1       -0.2040
     31 C20        15.9380  -20.0330   -6.9050 C.3     1  MOL1        0.0640
     32 O25        13.7680  -14.9160   -7.1530 O.3     1  MOL1       -0.4930
     33 C26        13.6260  -14.7940   -5.7420 C.3     1  MOL1        0.0780
@<TRIPOS>BOND
     1     9     8    1
     2     9    12    1
     3     3     2   ar
     4     3     4   ar
     5     2     1   ar
     6     4     5   ar
     7    14     8    1
     8    14    15   am
     9    25    20    1
    10    25    26    1
    11    21    20   ar
    12    21    22   ar
    13     1     8    1
    14     1     7   ar
    15    17    15    1
    16    17    18    1
    17    12    13    2
    18    12    11   am
    19     5     7   ar
    20     5     6    1
    21    20    19   ar
    22    22    23   ar
    23    15    16    2
    24    11    10    1
    25    27    26    1
    26    27    28    1
    27    26    31    1
    28    19    18    1
    29    19    24   ar
    30    23    24   ar
    31    24    32    1
    32    32    33    1
    33    31    28    1
    34    28    30    1
    35    28    29    1
