@<TRIPOS>MOLECULE
L3024_0_out.pdbqt
 33 35 0 0 0
SMALL
GASTEIGER

@<TRIPOS>ATOM
      1 C27         8.1160  -19.2410   -8.5430 C.ar    1  MOL1       -0.0240
      2 C28         7.6480  -17.9140   -8.5560 C.ar    1  MOL1       -0.0570
      3 C29         6.3220  -17.6280   -8.2160 C.ar    1  MOL1       -0.0610
      4 C30         5.4500  -18.6610   -7.8600 C.ar    1  MOL1       -0.0480
      5 C31         5.9030  -19.9850   -7.8400 C.ar    1  MOL1        0.0180
      6 Br32        4.7160  -21.3960   -7.3310 Br      1  MOL1       -0.0510
      7 C33         7.2270  -20.2750   -8.1840 C.ar    1  MOL1       -0.0430
      8  C6         9.5310  -19.5500   -8.9820 C.3     1  MOL1        0.0630
      9  C5         9.9460  -20.9440   -8.4790 C.3     1  MOL1        0.0510
     10  C1        10.3910  -24.2970  -10.4120 C.3     1  MOL1        0.0060
     11  N2        10.3910  -23.2930   -9.3580 N.am    1  MOL1       -0.3590
     12  C3         9.9440  -21.9530   -9.5910 C.2     1  MOL1        0.2220
     13  O4         9.5410  -21.6120  -10.7360 O.2     1  MOL1       -0.2750
     14  N7        10.4530  -18.5250   -8.4820 N.am    1  MOL1       -0.3460
     15  C8        11.6140  -18.1150   -9.2080 C.2     1  MOL1        0.2580
     16  O9        11.8890  -18.6440  -10.3170 O.2     1  MOL1       -0.2710
     17 C10        12.5100  -17.0440   -8.6630 C.3     1  MOL1        0.1670
     18 O11        13.3210  -17.5590   -7.6100 O.3     1  MOL1       -0.4800
     19 C12        14.6340  -17.1250   -7.4050 C.ar    1  MOL1        0.1660
     20 C13        15.7290  -17.8140   -7.9750 C.ar    1  MOL1        0.0120
     21 C21        17.0250  -17.2980   -7.8090 C.ar    1  MOL1       -0.0540
     22 C22        17.2370  -16.1460   -7.0520 C.ar    1  MOL1       -0.0580
     23 C23        16.1600  -15.4960   -6.4480 C.ar    1  MOL1       -0.0160
     24 C24        14.8510  -15.9830   -6.6170 C.ar    1  MOL1        0.1610
     25 C14        15.5440  -19.0950   -8.7580 C.3     1  MOL1        0.0280
     26 N15        15.9940  -20.2560   -7.9620 N.3     1  MOL1       -0.2870
     27 C16        15.7280  -21.5260   -8.6590 C.3     1  MOL1        0.0640
     28 C17        14.7160  -21.9690   -7.6220 C.3     1  MOL1        0.2720
     29 F18        15.1190  -23.0680   -6.8850 F       1  MOL1       -0.2040
     30 F19        13.4230  -22.0640   -8.1100 F       1  MOL1       -0.2040
     31 C20        15.0060  -20.6450   -6.9410 C.3     1  MOL1        0.0640
     32 O25        13.7420  -15.3600   -6.0270 O.3     1  MOL1       -0.4930
     33 C26        13.8110  -14.4850   -4.9050 C.3     1  MOL1        0.0780
@<TRIPOS>BOND
     1    13    12    2
     2    10    11    1
     3    16    15    2
     4    12    11   am
     5    12     9    1
     6    15    17    1
     7    15    14   am
     8     8     1    1
     9     8    14    1
    10     8     9    1
    11    25    20    1
    12    25    26    1
    13    17    18    1
    14    27    26    1
    15    27    28    1
    16     2     1   ar
    17     2     3   ar
    18     1     7   ar
    19     3     4   ar
    20     7     5   ar
    21    30    28    1
    22    20    21   ar
    23    20    19   ar
    24    26    31    1
    25     4     5   ar
    26     5     6    1
    27    21    22   ar
    28    28    31    1
    29    28    29    1
    30    18    19    1
    31    19    24   ar
    32    22    23   ar
    33    24    23   ar
    34    24    32    1
    35    32    33    1
