@<TRIPOS>MOLECULE
L3024_0_out.pdbqt
 33 35 0 0 0
SMALL
GASTEIGER

@<TRIPOS>ATOM
      1 C27        15.3700  -17.6870   -4.2480 C.ar    1  MOL1       -0.0240
      2 C28        15.0860  -16.4610   -3.6200 C.ar    1  MOL1       -0.0570
      3 C29        14.8650  -16.4070   -2.2400 C.ar    1  MOL1       -0.0610
      4 C30        14.9260  -17.5750   -1.4740 C.ar    1  MOL1       -0.0480
      5 C31        15.2120  -18.8010   -2.0860 C.ar    1  MOL1        0.0180
      6 Br32       15.3160  -20.3950   -1.0330 Br      1  MOL1       -0.0510
      7 C33        15.4270  -18.8590   -3.4660 C.ar    1  MOL1       -0.0430
      8  C6        15.5350  -17.7480   -5.7510 C.3     1  MOL1        0.0630
      9  C5        16.2400  -16.4760   -6.2560 C.3     1  MOL1        0.0510
     10  C1        18.0820  -18.0730   -9.2940 C.3     1  MOL1        0.0060
     11  N2        17.5330  -17.8530   -7.9640 N.am    1  MOL1       -0.3590
     12  C3        16.8010  -16.6680   -7.6350 C.2     1  MOL1        0.2220
     13  O4        16.6200  -15.7750   -8.5070 O.2     1  MOL1       -0.2750
     14  N7        14.2290  -17.9070   -6.4000 N.am    1  MOL1       -0.3460
     15  C8        13.9380  -18.9900   -7.2860 C.2     1  MOL1        0.2580
     16  O9        14.8190  -19.8510   -7.5480 O.2     1  MOL1       -0.2710
     17 C10        12.5770  -19.1200   -7.9030 C.3     1  MOL1        0.1670
     18 O11        11.8380  -20.1590   -7.2650 O.3     1  MOL1       -0.4800
     19 C12        11.0870  -21.0870   -7.9910 C.ar    1  MOL1        0.1660
     20 C13         9.7770  -20.7850   -8.4290 C.ar    1  MOL1        0.0120
     21 C21         9.0880  -21.7170   -9.2230 C.ar    1  MOL1       -0.0540
     22 C22         9.6680  -22.9460   -9.5370 C.ar    1  MOL1       -0.0580
     23 C23        10.9410  -23.2620   -9.0610 C.ar    1  MOL1       -0.0160
     24 C24        11.6580  -22.3370   -8.2800 C.ar    1  MOL1        0.1610
     25 C14         9.0950  -19.4850   -8.0640 C.3     1  MOL1        0.0280
     26 N15         8.4230  -18.9060   -9.2460 N.3     1  MOL1       -0.2870
     27 C16         9.2210  -17.8230   -9.8470 C.3     1  MOL1        0.0640
     28 C17         8.1920  -16.7690   -9.4920 C.3     1  MOL1        0.2720
     29 F18         7.5720  -16.2050  -10.5940 F       1  MOL1       -0.2040
     30 F19         8.6400  -15.8420   -8.5650 F       1  MOL1       -0.2040
     31 C20         7.4060  -17.9080   -8.8730 C.3     1  MOL1        0.0640
     32 O25        12.9390  -22.6170   -7.7820 O.3     1  MOL1       -0.4930
     33 C26        13.2320  -23.6520   -6.8500 C.3     1  MOL1        0.0780
@<TRIPOS>BOND
     1    29    28    1
     2    27    28    1
     3    27    26    1
     4    22    21   ar
     5    22    23   ar
     6    28    31    1
     7    28    30    1
     8    10    11    1
     9    26    31    1
    10    26    25    1
    11    21    20   ar
    12    23    24   ar
    13    13    12    2
    14    20    25    1
    15    20    19   ar
    16    24    19   ar
    17    24    32    1
    18    19    18    1
    19    11    12   am
    20    17    15    1
    21    17    18    1
    22    32    33    1
    23    12     9    1
    24    16    15    2
    25    15    14   am
    26    14     8    1
    27     9     8    1
    28     8     1    1
    29     1     2   ar
    30     1     7   ar
    31     2     3   ar
    32     7     5   ar
    33     3     4   ar
    34     5     4   ar
    35     5     6    1
