@<TRIPOS>MOLECULE
L3024_0_out.pdbqt
 33 35 0 0 0
SMALL
GASTEIGER

@<TRIPOS>ATOM
      1 C27        15.0340  -21.8350   -7.7440 C.ar    1  MOL1       -0.0240
      2 C28        16.1620  -22.2130   -6.9940 C.ar    1  MOL1       -0.0570
      3 C29        17.3700  -21.5210   -7.1350 C.ar    1  MOL1       -0.0610
      4 C30        17.4630  -20.4480   -8.0260 C.ar    1  MOL1       -0.0480
      5 C31        16.3470  -20.0590   -8.7750 C.ar    1  MOL1        0.0180
      6 Br32       16.4700  -18.5760   -9.9770 Br      1  MOL1       -0.0510
      7 C33        15.1400  -20.7520   -8.6400 C.ar    1  MOL1       -0.0430
      8  C6        13.7530  -22.6330   -7.6380 C.3     1  MOL1        0.0630
      9  C5        13.7260  -23.7330   -8.7150 C.3     1  MOL1        0.0510
     10  C1        10.5020  -25.8220   -9.3580 C.3     1  MOL1        0.0060
     11  N2        11.6140  -24.8980   -9.5310 N.am    1  MOL1       -0.3590
     12  C3        12.5860  -24.6850   -8.5020 C.2     1  MOL1        0.2220
     13  O4        12.4920  -25.3020   -7.4060 O.2     1  MOL1       -0.2750
     14  N7        12.5900  -21.7490   -7.7740 N.am    1  MOL1       -0.3460
     15  C8        12.0830  -20.9720   -6.6880 C.2     1  MOL1        0.2580
     16  O9        12.6280  -21.0350   -5.5540 O.2     1  MOL1       -0.2710
     17 C10        10.9070  -20.0640   -6.8880 C.3     1  MOL1        0.1670
     18 O11        11.1230  -19.2080   -8.0080 O.3     1  MOL1       -0.4800
     19 C12        10.1780  -18.2600   -8.4090 C.ar    1  MOL1        0.1660
     20 C13         9.3210  -18.5010   -9.5080 C.ar    1  MOL1        0.0120
     21 C21         8.3330  -17.5550   -9.8270 C.ar    1  MOL1       -0.0540
     22 C22         8.2280  -16.3690   -9.1010 C.ar    1  MOL1       -0.0580
     23 C23         9.1070  -16.1100   -8.0490 C.ar    1  MOL1       -0.0160
     24 C24        10.0920  -17.0520   -7.6980 C.ar    1  MOL1        0.1610
     25 C14         9.4400  -19.7510  -10.3520 C.3     1  MOL1        0.0280
     26 N15         8.6020  -20.8320   -9.7930 N.3     1  MOL1       -0.2870
     27 C16         9.3990  -22.0320   -9.4860 C.3     1  MOL1        0.0640
     28 C17         8.7010  -22.8570  -10.5480 C.3     1  MOL1        0.2720
     29 F18         7.9300  -23.8860  -10.0360 F       1  MOL1       -0.2040
     30 F19         9.5310  -23.2430  -11.5890 F       1  MOL1       -0.2040
     31 C20         7.9100  -21.5980  -10.8440 C.3     1  MOL1        0.0640
     32 O25        10.9950  -16.8310   -6.6480 O.3     1  MOL1       -0.4930
     33 C26        12.0460  -15.8700   -6.6790 C.3     1  MOL1        0.0780
@<TRIPOS>BOND
     1    30    28    1
     2    31    28    1
     3    31    26    1
     4    28    29    1
     5    28    27    1
     6    25    26    1
     7    25    20    1
     8     6     5    1
     9    21    20   ar
    10    21    22   ar
    11    26    27    1
    12    11    10    1
    13    11    12   am
    14    20    19   ar
    15    22    23   ar
    16     5     7   ar
    17     5     4   ar
    18     9    12    1
    19     9     8    1
    20     7     1   ar
    21    12    13    2
    22    19    18    1
    23    19    24   ar
    24    23    24   ar
    25     4     3   ar
    26    18    17    1
    27    14     8    1
    28    14    15   am
    29     1     8    1
    30     1     2   ar
    31    24    32    1
    32     3     2   ar
    33    17    15    1
    34    15    16    2
    35    33    32    1
