@<TRIPOS>MOLECULE
L3024_0_out.pdbqt
 33 35 0 0 0
SMALL
GASTEIGER

@<TRIPOS>ATOM
      1 C27         9.2240  -20.5550   -8.9540 C.ar    1  MOL1       -0.0240
      2 C28         7.8420  -20.7450   -8.7710 C.ar    1  MOL1       -0.0570
      3 C29         7.2540  -21.9810   -9.0570 C.ar    1  MOL1       -0.0610
      4 C30         8.0370  -23.0380   -9.5280 C.ar    1  MOL1       -0.0480
      5 C31         9.4140  -22.8640   -9.7110 C.ar    1  MOL1        0.0180
      6 Br32       10.4890  -24.3180  -10.3350 Br      1  MOL1       -0.0510
      7 C33        10.0040  -21.6270   -9.4310 C.ar    1  MOL1       -0.0430
      8  C6         9.8390  -19.1940   -8.7120 C.3     1  MOL1        0.0630
      9  C5         9.1090  -18.1280   -9.5480 C.3     1  MOL1        0.0510
     10  C1         5.9810  -16.6480   -7.7590 C.3     1  MOL1        0.0060
     11  N2         6.8390  -17.4780   -8.5920 N.am    1  MOL1       -0.3590
     12  C3         8.2490  -17.2470   -8.6880 C.2     1  MOL1        0.2220
     13  O4         8.7800  -16.3010   -8.0440 O.2     1  MOL1       -0.2750
     14  N7        11.2690  -19.2170   -9.0400 N.am    1  MOL1       -0.3460
     15  C8        12.2140  -18.3380   -8.4260 C.2     1  MOL1        0.2580
     16  O9        11.8330  -17.4930   -7.5720 O.2     1  MOL1       -0.2710
     17 C10        13.6680  -18.4210   -8.7790 C.3     1  MOL1        0.1670
     18 O11        14.3950  -19.0830   -7.7460 O.3     1  MOL1       -0.4800
     19 C12        15.6810  -18.6840   -7.3720 C.ar    1  MOL1        0.1660
     20 C13        15.8830  -17.7560   -6.3250 C.ar    1  MOL1        0.0120
     21 C21        17.1940  -17.4440   -5.9290 C.ar    1  MOL1       -0.0540
     22 C22        18.2860  -18.0030   -6.5930 C.ar    1  MOL1       -0.0580
     23 C23        18.0850  -18.8800   -7.6590 C.ar    1  MOL1       -0.0160
     24 C24        16.7800  -19.2240   -8.0600 C.ar    1  MOL1        0.1610
     25 C14        14.7240  -17.0880   -5.6180 C.3     1  MOL1        0.0280
     26 N15        15.0630  -15.6910   -5.2800 N.3     1  MOL1       -0.2870
     27 C16        14.9170  -15.4320   -3.8370 C.3     1  MOL1        0.0640
     28 C17        13.7660  -14.4690   -4.0510 C.3     1  MOL1        0.2720
     29 F18        14.0670  -13.1600   -3.7180 F       1  MOL1       -0.2040
     30 F19        12.5610  -14.9170   -3.5350 F       1  MOL1       -0.2040
     31 C20        13.9390  -14.7710   -5.5270 C.3     1  MOL1        0.0640
     32 O25        16.5350  -20.1000   -9.1270 O.3     1  MOL1       -0.4930
     33 C26        16.8620  -21.4860   -9.1230 C.3     1  MOL1        0.0780
@<TRIPOS>BOND
     1     6     5    1
     2     5     4   ar
     3     5     7   ar
     4     9     8    1
     5     9    12    1
     6     4     3   ar
     7     7     1   ar
     8    32    33    1
     9    32    24    1
    10     3     2   ar
    11    14     8    1
    12    14    15   am
    13     1     2   ar
    14     1     8    1
    15    17    15    1
    16    17    18    1
    17    12    11   am
    18    12    13    2
    19    11    10    1
    20    15    16    2
    21    24    23   ar
    22    24    19   ar
    23    18    19    1
    24    23    22   ar
    25    19    20   ar
    26    22    21   ar
    27    20    21   ar
    28    20    25    1
    29    25    26    1
    30    31    26    1
    31    31    28    1
    32    26    27    1
    33    28    27    1
    34    28    29    1
    35    28    30    1
