@<TRIPOS>MOLECULE
L3024_0_out.pdbqt
 33 35 0 0 0
SMALL
GASTEIGER

@<TRIPOS>ATOM
      1 C27         8.0780  -17.7950   -9.3770 C.ar    1  MOL1       -0.0240
      2 C28         7.8450  -17.1450  -10.6020 C.ar    1  MOL1       -0.0570
      3 C29         6.7690  -16.2610  -10.7410 C.ar    1  MOL1       -0.0610
      4 C30         5.9170  -16.0190   -9.6610 C.ar    1  MOL1       -0.0480
      5 C31         6.1390  -16.6570   -8.4350 C.ar    1  MOL1        0.0180
      6 Br32        4.9850  -16.3080   -6.9500 Br      1  MOL1       -0.0510
      7 C33         7.2110  -17.5440   -8.2940 C.ar    1  MOL1       -0.0430
      8  C6         9.2000  -18.8030   -9.2560 C.3     1  MOL1        0.0630
      9  C5         8.7370  -20.0090   -8.4200 C.3     1  MOL1        0.0510
     10  C1         9.4030  -22.6720  -11.1840 C.3     1  MOL1        0.0060
     11  N2         9.4990  -21.4780  -10.3560 N.am    1  MOL1       -0.3590
     12  C3         8.6060  -21.2460   -9.2620 C.2     1  MOL1        0.2220
     13  O4         7.7010  -22.0830   -8.9950 O.2     1  MOL1       -0.2750
     14  N7        10.3820  -18.1790   -8.6520 N.am    1  MOL1       -0.3460
     15  C8        11.6320  -18.0740   -9.3370 C.2     1  MOL1        0.2580
     16  O9        11.7580  -18.5350  -10.5020 O.2     1  MOL1       -0.2710
     17 C10        12.8020  -17.4020   -8.6820 C.3     1  MOL1        0.1670
     18 O11        12.9390  -17.8430   -7.3330 O.3     1  MOL1       -0.4800
     19 C12        14.1750  -17.8640   -6.6820 C.ar    1  MOL1        0.1660
     20 C13        15.0270  -18.9890   -6.7670 C.ar    1  MOL1        0.0120
     21 C21        16.2940  -18.9360   -6.1630 C.ar    1  MOL1       -0.0540
     22 C22        16.6910  -17.8070   -5.4470 C.ar    1  MOL1       -0.0580
     23 C23        15.8290  -16.7170   -5.3230 C.ar    1  MOL1       -0.0160
     24 C24        14.5620  -16.7390   -5.9360 C.ar    1  MOL1        0.1610
     25 C14        14.6100  -20.2510   -7.4890 C.3     1  MOL1        0.0280
     26 N15        14.3060  -21.3240   -6.5200 N.3     1  MOL1       -0.2870
     27 C16        14.0740  -22.6130   -7.1930 C.3     1  MOL1        0.0640
     28 C17        12.6160  -22.6490   -6.7800 C.3     1  MOL1        0.2720
     29 F18        12.3170  -23.6640   -5.8870 F       1  MOL1       -0.2040
     30 F19        11.7320  -22.5580   -7.8420 F       1  MOL1       -0.2040
     31 C20        12.8910  -21.3170   -6.1100 C.3     1  MOL1        0.0640
     32 O25        13.6660  -15.6650   -5.8340 O.3     1  MOL1       -0.4930
     33 C26        13.4580  -14.8990   -4.6520 C.3     1  MOL1        0.0780
@<TRIPOS>BOND
     1    10    11    1
     2     3     2   ar
     3     3     4   ar
     4     2     1   ar
     5    16    15    2
     6    11    12   am
     7     4     5   ar
     8     1     8    1
     9     1     7   ar
    10    15    17    1
    11    15    14   am
    12    12    13    2
    13    12     9    1
    14     8    14    1
    15     8     9    1
    16    17    18    1
    17     5     7   ar
    18     5     6    1
    19    30    28    1
    20    25    20    1
    21    25    26    1
    22    18    19    1
    23    27    28    1
    24    27    26    1
    25    28    31    1
    26    28    29    1
    27    20    19   ar
    28    20    21   ar
    29    19    24   ar
    30    26    31    1
    31    21    22   ar
    32    24    32    1
    33    24    23   ar
    34    32    33    1
    35    22    23   ar
