@<TRIPOS>MOLECULE
L3024_0_out.pdbqt
 33 35 0 0 0
SMALL
GASTEIGER

@<TRIPOS>ATOM
      1 C27        14.4820  -17.6690   -7.3870 C.ar    1  MOL1       -0.0240
      2 C28        13.7160  -16.5820   -7.8450 C.ar    1  MOL1       -0.0570
      3 C29        13.8990  -15.3070   -7.3000 C.ar    1  MOL1       -0.0610
      4 C30        14.8470  -15.1040   -6.2930 C.ar    1  MOL1       -0.0480
      5 C31        15.6190  -16.1760   -5.8310 C.ar    1  MOL1        0.0180
      6 Br32       16.9310  -15.8930   -4.4680 Br      1  MOL1       -0.0510
      7 C33        15.4340  -17.4530   -6.3700 C.ar    1  MOL1       -0.0430
      8  C6        14.2280  -19.0580   -7.9300 C.3     1  MOL1        0.0630
      9  C5        15.3730  -19.4750   -8.8700 C.3     1  MOL1        0.0510
     10  C1        17.6610  -22.2360   -7.3490 C.3     1  MOL1        0.0060
     11  N2        17.1120  -20.9410   -7.7250 N.am    1  MOL1       -0.3590
     12  C3        15.9190  -20.8260   -8.5080 C.2     1  MOL1        0.2220
     13  O4        15.3150  -21.8620   -8.8960 O.2     1  MOL1       -0.2750
     14  N7        12.9410  -19.1010   -8.6340 N.am    1  MOL1       -0.3460
     15  C8        11.7790  -19.7160   -8.0740 C.2     1  MOL1        0.2580
     16  O9        11.8320  -20.2600   -6.9390 O.2     1  MOL1       -0.2710
     17 C10        10.4810  -19.7080   -8.8250 C.3     1  MOL1        0.1670
     18 O11         9.5640  -20.6340   -8.2470 O.3     1  MOL1       -0.4800
     19 C12         8.5330  -21.2170   -8.9880 C.ar    1  MOL1        0.1660
     20 C13         7.2980  -20.5530   -9.1690 C.ar    1  MOL1        0.0120
     21 C21         6.3180  -21.1400   -9.9870 C.ar    1  MOL1       -0.0540
     22 C22         6.5390  -22.3850  -10.5750 C.ar    1  MOL1       -0.0580
     23 C23         7.7390  -23.0620  -10.3530 C.ar    1  MOL1       -0.0160
     24 C24         8.7430  -22.4850   -9.5540 C.ar    1  MOL1        0.1610
     25 C14         7.0010  -19.2260   -8.5050 C.3     1  MOL1        0.0280
     26 N15         6.6400  -18.2120   -9.5170 N.3     1  MOL1       -0.2870
     27 C16         7.8300  -17.6900  -10.2090 C.3     1  MOL1        0.0640
     28 C17         7.6500  -16.3020   -9.6270 C.3     1  MOL1        0.2720
     29 F18         7.3320  -15.3410  -10.5700 F       1  MOL1       -0.2040
     30 F19         8.6630  -15.9240   -8.7600 F       1  MOL1       -0.2040
     31 C20         6.4390  -16.8800   -8.9210 C.3     1  MOL1        0.0640
     32 O25         9.9630  -23.1320   -9.3060 O.3     1  MOL1       -0.4930
     33 C26        10.3510  -24.3690   -9.8930 C.3     1  MOL1        0.0780
@<TRIPOS>BOND
     1    22    23   ar
     2    22    21   ar
     3    29    28    1
     4    23    24   ar
     5    27    28    1
     6    27    26    1
     7    21    20   ar
     8    33    32    1
     9    28    31    1
    10    28    30    1
    11    24    32    1
    12    24    19   ar
    13    26    31    1
    14    26    25    1
    15    20    19   ar
    16    20    25    1
    17    19    18    1
    18    13    12    2
    19     9    12    1
    20     9     8    1
    21    17    18    1
    22    17    15    1
    23    14    15   am
    24    14     8    1
    25    12    11   am
    26    15    16    2
    27     8     1    1
    28     2     1   ar
    29     2     3   ar
    30    11    10    1
    31     1     7   ar
    32     3     4   ar
    33     7     5   ar
    34     4     5   ar
    35     5     6    1
