@<TRIPOS>MOLECULE
L3024_0_out.pdbqt
 33 35 0 0 0
SMALL
GASTEIGER

@<TRIPOS>ATOM
      1 C27         5.4070  -14.7270  -11.2040 C.ar    1  MOL1       -0.0240
      2 C28         5.5630  -13.5600  -11.9740 C.ar    1  MOL1       -0.0570
      3 C29         4.5550  -12.5900  -11.9990 C.ar    1  MOL1       -0.0610
      4 C30         3.3840  -12.7740  -11.2590 C.ar    1  MOL1       -0.0480
      5 C31         3.2180  -13.9300  -10.4860 C.ar    1  MOL1        0.0180
      6 Br32        1.6250  -14.1720   -9.4560 Br      1  MOL1       -0.0510
      7 C33         4.2210  -14.9040  -10.4630 C.ar    1  MOL1       -0.0430
      8  C6         6.4690  -15.8040  -11.2390 C.3     1  MOL1        0.0630
      9  C5         6.4390  -16.5310  -12.5960 C.3     1  MOL1        0.0510
     10  C1         9.7020  -18.5480  -13.2700 C.3     1  MOL1        0.0060
     11  N2         8.7190  -17.4750  -13.2240 N.am    1  MOL1       -0.3590
     12  C3         7.4270  -17.6610  -12.6370 C.2     1  MOL1        0.2220
     13  O4         7.1100  -18.7790  -12.1470 O.2     1  MOL1       -0.2750
     14  N7         6.2660  -16.7540  -10.1400 N.am    1  MOL1       -0.3460
     15  C8         7.3140  -17.1280   -9.2430 C.2     1  MOL1        0.2580
     16  O9         8.4710  -16.6490   -9.3820 O.2     1  MOL1       -0.2710
     17 C10         7.0460  -18.0840   -8.1190 C.3     1  MOL1        0.1670
     18 O11         8.0770  -19.0650   -8.0410 O.3     1  MOL1       -0.4800
     19 C12         8.1410  -20.1460   -8.9250 C.ar    1  MOL1        0.1660
     20 C13         7.1380  -21.1420   -8.9350 C.ar    1  MOL1        0.0120
     21 C21         7.2000  -22.1670   -9.8940 C.ar    1  MOL1       -0.0540
     22 C22         8.2630  -22.2320  -10.7940 C.ar    1  MOL1       -0.0580
     23 C23         9.2790  -21.2760  -10.7490 C.ar    1  MOL1       -0.0160
     24 C24         9.2280  -20.2280   -9.8110 C.ar    1  MOL1        0.1610
     25 C14         5.9980  -21.1350   -7.9410 C.3     1  MOL1        0.0280
     26 N15         4.7650  -20.6240   -8.5730 N.3     1  MOL1       -0.2870
     27 C16         3.7550  -20.2520   -7.5680 C.3     1  MOL1        0.0640
     28 C17         2.8070  -21.3510   -8.0060 C.3     1  MOL1        0.2720
     29 F18         1.6390  -20.8810   -8.5810 F       1  MOL1       -0.2040
     30 F19         2.6060  -22.3290   -7.0460 F       1  MOL1       -0.2040
     31 C20         3.8770  -21.7110   -9.0180 C.3     1  MOL1        0.0640
     32 O25        10.2280  -19.2490   -9.7320 O.3     1  MOL1       -0.4930
     33 C26        11.1590  -19.1320   -8.6620 C.3     1  MOL1        0.0780
@<TRIPOS>BOND
     1    10    11    1
     2    11    12   am
     3    12     9    1
     4    12    13    2
     5     9     8    1
     6     3     2   ar
     7     3     4   ar
     8     2     1   ar
     9     4     5   ar
    10     8     1    1
    11     8    14    1
    12     1     7   ar
    13    22    23   ar
    14    22    21   ar
    15    23    24   ar
    16     5     7   ar
    17     5     6    1
    18    14    15   am
    19    21    20   ar
    20    24    32    1
    21    24    19   ar
    22    32    33    1
    23    16    15    2
    24    15    17    1
    25    31    26    1
    26    31    28    1
    27    20    19   ar
    28    20    25    1
    29    19    18    1
    30    29    28    1
    31    26    25    1
    32    26    27    1
    33    17    18    1
    34    28    27    1
    35    28    30    1
