@<TRIPOS>MOLECULE
L3024_0_out.pdbqt
 33 35 0 0 0
SMALL
GASTEIGER

@<TRIPOS>ATOM
      1 C27        10.3490  -17.7540   -8.5300 C.ar    1  MOL1       -0.0240
      2 C28         9.7190  -16.6770   -7.8820 C.ar    1  MOL1       -0.0570
      3 C29         8.4890  -16.1950   -8.3440 C.ar    1  MOL1       -0.0610
      4 C30         7.8790  -16.7820   -9.4560 C.ar    1  MOL1       -0.0480
      5 C31         8.4940  -17.8570  -10.1070 C.ar    1  MOL1        0.0180
      6 Br32        7.6480  -18.6750  -11.6160 Br      1  MOL1       -0.0510
      7 C33         9.7260  -18.3380   -9.6510 C.ar    1  MOL1       -0.0430
      8  C6        11.7130  -18.2220   -8.0680 C.3     1  MOL1        0.0630
      9  C5        11.6550  -19.7100   -7.6760 C.3     1  MOL1        0.0510
     10  C1        15.3270  -20.3400   -8.8130 C.3     1  MOL1        0.0060
     11  N2        14.0680  -19.6840   -8.4890 N.am    1  MOL1       -0.3590
     12  C3        12.9360  -20.4180   -8.0120 C.2     1  MOL1        0.2220
     13  O4        13.0080  -21.6690   -7.8680 O.2     1  MOL1       -0.2750
     14  N7        12.1730  -17.4090   -6.9370 N.am    1  MOL1       -0.3460
     15  C8        13.1930  -16.4160   -7.0700 C.2     1  MOL1        0.2580
     16  O9        13.7430  -16.2150   -8.1850 O.2     1  MOL1       -0.2710
     17 C10        13.6080  -15.5940   -5.8870 C.3     1  MOL1        0.1670
     18 O11        14.9940  -15.2690   -5.9670 O.3     1  MOL1       -0.4800
     19 C12        15.9860  -16.1350   -5.5010 C.ar    1  MOL1        0.1660
     20 C13        16.0280  -16.5400   -4.1480 C.ar    1  MOL1        0.0120
     21 C21        16.9950  -17.4740   -3.7410 C.ar    1  MOL1       -0.0540
     22 C22        17.9350  -17.9610   -4.6490 C.ar    1  MOL1       -0.0580
     23 C23        17.9240  -17.5220   -5.9730 C.ar    1  MOL1       -0.0160
     24 C24        16.9520  -16.6020   -6.4080 C.ar    1  MOL1        0.1610
     25 C14        15.0590  -15.9940   -3.1230 C.3     1  MOL1        0.0280
     26 N15        15.4990  -14.6640   -2.6540 N.3     1  MOL1       -0.2870
     27 C16        16.0330  -14.7230   -1.2830 C.3     1  MOL1        0.0640
     28 C17        14.9030  -13.8790   -0.7280 C.3     1  MOL1        0.2720
     29 F18        15.3090  -12.6390   -0.2670 F       1  MOL1       -0.2040
     30 F19        14.0770  -14.5610    0.1510 F       1  MOL1       -0.2040
     31 C20        14.3780  -13.8530   -2.1500 C.3     1  MOL1        0.0640
     32 O25        16.9070  -16.1350   -7.7300 O.3     1  MOL1       -0.4930
     33 C26        17.3360  -16.8820   -8.8640 C.3     1  MOL1        0.0780
@<TRIPOS>BOND
     1     6     5    1
     2     5     7   ar
     3     5     4   ar
     4     7     1   ar
     5     4     3   ar
     6    33    32    1
     7    10    11    1
     8     1     8    1
     9     1     2   ar
    10    11    12   am
    11     3     2   ar
    12    16    15    2
    13     8     9    1
    14     8    14    1
    15    12    13    2
    16    12     9    1
    17    32    24    1
    18    15    14   am
    19    15    17    1
    20    24    23   ar
    21    24    19   ar
    22    23    22   ar
    23    18    17    1
    24    18    19    1
    25    19    20   ar
    26    22    21   ar
    27    20    21   ar
    28    20    25    1
    29    25    26    1
    30    26    31    1
    31    26    27    1
    32    31    28    1
    33    27    28    1
    34    28    29    1
    35    28    30    1
