@<TRIPOS>MOLECULE
L3024_0_out.pdbqt
 33 35 0 0 0
SMALL
GASTEIGER

@<TRIPOS>ATOM
      1 C27        17.0840  -18.9250   -4.4270 C.ar    1  MOL1       -0.0240
      2 C28        16.2190  -19.5410   -3.5030 C.ar    1  MOL1       -0.0570
      3 C29        15.8460  -18.8760   -2.3310 C.ar    1  MOL1       -0.0610
      4 C30        16.3320  -17.5920   -2.0680 C.ar    1  MOL1       -0.0480
      5 C31        17.1900  -16.9660   -2.9800 C.ar    1  MOL1        0.0180
      6 Br32       17.8370  -15.2000   -2.6300 Br      1  MOL1       -0.0510
      7 C33        17.5690  -17.6310   -4.1510 C.ar    1  MOL1       -0.0430
      8  C6        17.5400  -19.6800   -5.6570 C.3     1  MOL1        0.0630
      9  C5        18.7370  -18.9590   -6.3040 C.3     1  MOL1        0.0510
     10  C1        19.9780  -20.0010   -9.8460 C.3     1  MOL1        0.0060
     11  N2        19.3980  -19.2420   -8.7470 N.am    1  MOL1       -0.3590
     12  C3        19.3310  -19.7710   -7.4180 C.2     1  MOL1        0.2220
     13  O4        19.7750  -20.9260   -7.1740 O.2     1  MOL1       -0.2750
     14  N7        16.4350  -19.8080   -6.6130 N.am    1  MOL1       -0.3460
     15  C8        15.8520  -21.0680   -6.9510 C.2     1  MOL1        0.2580
     16  O9        16.2890  -22.1290   -6.4320 O.2     1  MOL1       -0.2710
     17 C10        14.7070  -21.1400   -7.9160 C.3     1  MOL1        0.1670
     18 O11        13.5850  -20.4180   -7.4130 O.3     1  MOL1       -0.4800
     19 C12        12.6200  -19.8650   -8.2580 C.ar    1  MOL1        0.1660
     20 C13        12.8140  -18.6020   -8.8630 C.ar    1  MOL1        0.0120
     21 C21        11.8540  -18.1200   -9.7680 C.ar    1  MOL1       -0.0540
     22 C22        10.6980  -18.8540  -10.0320 C.ar    1  MOL1       -0.0580
     23 C23        10.4840  -20.0770   -9.3950 C.ar    1  MOL1       -0.0160
     24 C24        11.4420  -20.5900   -8.5000 C.ar    1  MOL1        0.1610
     25 C14        14.0290  -17.7520   -8.5610 C.3     1  MOL1        0.0280
     26 N15        13.6290  -16.3560   -8.2940 N.3     1  MOL1       -0.2870
     27 C16        14.7820  -15.5270   -7.9030 C.3     1  MOL1        0.0640
     28 C17        14.2470  -15.3150   -6.5010 C.3     1  MOL1        0.2720
     29 F18        13.8880  -14.0050   -6.2350 F       1  MOL1       -0.2040
     30 F19        15.0260  -15.8950   -5.5130 F       1  MOL1       -0.2040
     31 C20        13.0830  -16.1830   -6.9370 C.3     1  MOL1        0.0640
     32 O25        11.2640  -21.8140   -7.8400 O.3     1  MOL1       -0.4930
     33 C26        11.6030  -23.0830   -8.3900 C.3     1  MOL1        0.0780
@<TRIPOS>BOND
     1    22    21   ar
     2    22    23   ar
     3    10    11    1
     4    21    20   ar
     5    23    24   ar
     6    20    25    1
     7    20    19   ar
     8    11    12   am
     9    25    26    1
    10    24    19   ar
    11    24    32    1
    12    33    32    1
    13    26    27    1
    14    26    31    1
    15    19    18    1
    16    17    18    1
    17    17    15    1
    18    27    28    1
    19    12    13    2
    20    12     9    1
    21    15    14   am
    22    15    16    2
    23    31    28    1
    24    14     8    1
    25    28    29    1
    26    28    30    1
    27     9     8    1
    28     8     1    1
    29     1     7   ar
    30     1     2   ar
    31     7     5   ar
    32     2     3   ar
    33     5     6    1
    34     5     4   ar
    35     3     4   ar
