@<TRIPOS>MOLECULE
L3024_0_out.pdbqt
 33 35 0 0 0
SMALL
GASTEIGER

@<TRIPOS>ATOM
      1 C27         7.7540  -19.5630   -9.7630 C.ar    1  MOL1       -0.0240
      2 C28         8.3640  -20.8250   -9.8870 C.ar    1  MOL1       -0.0570
      3 C29         7.7820  -21.9530   -9.3010 C.ar    1  MOL1       -0.0610
      4 C30         6.5870  -21.8350   -8.5860 C.ar    1  MOL1       -0.0480
      5 C31         5.9670  -20.5860   -8.4580 C.ar    1  MOL1        0.0180
      6 Br32        4.3200  -20.4290   -7.4980 Br      1  MOL1       -0.0510
      7 C33         6.5500  -19.4550   -9.0380 C.ar    1  MOL1       -0.0430
      8  C6         8.4270  -18.3360  -10.3380 C.3     1  MOL1        0.0630
      9  C5         8.0480  -18.1720  -11.8210 C.3     1  MOL1        0.0510
     10  C1         5.6770  -15.1750  -11.0620 C.3     1  MOL1        0.0060
     11  N2         6.6210  -16.2730  -10.9030 N.am    1  MOL1       -0.3590
     12  C3         7.0660  -17.0530  -12.0170 C.2     1  MOL1        0.2220
     13  O4         6.6370  -16.8030  -13.1760 O.2     1  MOL1       -0.2750
     14  N7         9.8830  -18.4370  -10.1860 N.am    1  MOL1       -0.3460
     15  C8        10.5830  -17.8590   -9.0820 C.2     1  MOL1        0.2580
     16  O9         9.9540  -17.2230   -8.1950 O.2     1  MOL1       -0.2710
     17 C10        12.0690  -18.0140   -8.9610 C.3     1  MOL1        0.1670
     18 O11        12.4650  -17.9780   -7.5920 O.3     1  MOL1       -0.4800
     19 C12        13.8070  -17.9000   -7.2100 C.ar    1  MOL1        0.1660
     20 C13        14.6610  -19.0230   -7.3080 C.ar    1  MOL1        0.0120
     21 C21        16.0210  -18.8780   -6.9880 C.ar    1  MOL1       -0.0540
     22 C22        16.5160  -17.6560   -6.5320 C.ar    1  MOL1       -0.0580
     23 C23        15.6600  -16.5640   -6.3880 C.ar    1  MOL1       -0.0160
     24 C24        14.2980  -16.6790   -6.7220 C.ar    1  MOL1        0.1610
     25 C14        14.1500  -20.3770   -7.7480 C.3     1  MOL1        0.0280
     26 N15        13.5940  -21.1170   -6.5970 N.3     1  MOL1       -0.2870
     27 C16        14.2200  -22.4420   -6.4500 C.3     1  MOL1        0.0640
     28 C17        12.9290  -23.1680   -6.7730 C.3     1  MOL1        0.2720
     29 F18        12.4100  -23.8810   -5.7070 F       1  MOL1       -0.2040
     30 F19        12.9730  -23.8840   -7.9590 F       1  MOL1       -0.2040
     31 C20        12.3240  -21.7860   -6.9280 C.3     1  MOL1        0.0640
     32 O25        13.4050  -15.6050   -6.5900 O.3     1  MOL1       -0.4930
     33 C26        13.2510  -14.8260   -5.4090 C.3     1  MOL1        0.0780
@<TRIPOS>BOND
     1    13    12    2
     2    12     9    1
     3    12    11   am
     4     9     8    1
     5    10    11    1
     6     8    14    1
     7     8     1    1
     8    14    15   am
     9     2     1   ar
    10     2     3   ar
    11     1     7   ar
    12     3     4   ar
    13    15    17    1
    14    15    16    2
    15     7     5   ar
    16    17    18    1
    17     4     5   ar
    18     5     6    1
    19    30    28    1
    20    25    20    1
    21    25    26    1
    22    18    19    1
    23    20    19   ar
    24    20    21   ar
    25    19    24   ar
    26    21    22   ar
    27    31    28    1
    28    31    26    1
    29    28    27    1
    30    28    29    1
    31    24    32    1
    32    24    23   ar
    33    26    27    1
    34    32    33    1
    35    22    23   ar
