@<TRIPOS>MOLECULE
L3024_0_out.pdbqt
 33 35 0 0 0
SMALL
GASTEIGER

@<TRIPOS>ATOM
      1 C27         7.0170  -18.6020   -8.6190 C.ar    1  MOL1       -0.0240
      2 C28         6.3220  -19.8180   -8.4920 C.ar    1  MOL1       -0.0570
      3 C29         5.0890  -19.8630   -7.8320 C.ar    1  MOL1       -0.0610
      4 C30         4.5390  -18.6960   -7.2920 C.ar    1  MOL1       -0.0480
      5 C31         5.2190  -17.4790   -7.4140 C.ar    1  MOL1        0.0180
      6 Br32        4.4560  -15.8790   -6.6950 Br      1  MOL1       -0.0510
      7 C33         6.4540  -17.4320   -8.0690 C.ar    1  MOL1       -0.0430
      8  C6         8.3830  -18.5750   -9.2700 C.3     1  MOL1        0.0630
      9  C5         8.3360  -19.3050  -10.6240 C.3     1  MOL1        0.0510
     10  C1         6.6110  -16.7260  -12.9790 C.3     1  MOL1        0.0060
     11  N2         6.8570  -17.6670  -11.8960 N.am    1  MOL1       -0.3590
     12  C3         8.1090  -18.3480  -11.7580 C.2     1  MOL1        0.2220
     13  O4         9.0350  -18.1440  -12.5900 O.2     1  MOL1       -0.2750
     14  N7         9.3800  -19.1890   -8.3860 N.am    1  MOL1       -0.3460
     15  C8        10.7270  -18.7200   -8.3020 C.2     1  MOL1        0.2580
     16  O9        11.1060  -17.7490   -9.0100 O.2     1  MOL1       -0.2710
     17 C10        11.6990  -19.3680   -7.3620 C.3     1  MOL1        0.1670
     18 O11        12.8870  -19.7430   -8.0540 O.3     1  MOL1       -0.4800
     19 C12        14.0770  -20.0330   -7.3810 C.ar    1  MOL1        0.1660
     20 C13        15.0440  -19.0300   -7.1400 C.ar    1  MOL1        0.0120
     21 C21        16.1890  -19.3480   -6.3900 C.ar    1  MOL1       -0.0540
     22 C22        16.3940  -20.6480   -5.9290 C.ar    1  MOL1       -0.0580
     23 C23        15.4630  -21.6480   -6.2100 C.ar    1  MOL1       -0.0160
     24 C24        14.2990  -21.3490   -6.9420 C.ar    1  MOL1        0.1610
     25 C14        14.8810  -17.6230   -7.6700 C.3     1  MOL1        0.0280
     26 N15        14.4660  -16.7090   -6.5870 N.3     1  MOL1       -0.2870
     27 C16        13.3380  -15.8570   -7.0000 C.3     1  MOL1        0.0640
     28 C17        14.1720  -14.5930   -6.9300 C.3     1  MOL1        0.2720
     29 F18        13.7770  -13.7200   -5.9310 F       1  MOL1       -0.2040
     30 F19        14.3680  -13.9860   -8.1600 F       1  MOL1       -0.2040
     31 C20        15.3120  -15.5050   -6.5200 C.3     1  MOL1        0.0640
     32 O25        13.3390  -22.3250   -7.2470 O.3     1  MOL1       -0.4930
     33 C26        12.8510  -23.2910   -6.3230 C.3     1  MOL1        0.0780
@<TRIPOS>BOND
     1    10    11    1
     2    13    12    2
     3    11    12   am
     4    12     9    1
     5     9     8    1
     6     8     1    1
     7     8    14    1
     8    16    15    2
     9     1     2   ar
    10     1     7   ar
    11     2     3   ar
    12    14    15   am
    13    15    17    1
    14    30    28    1
    15     7     5   ar
    16    18    19    1
    17    18    17    1
    18     3     4   ar
    19    25    20    1
    20    25    26    1
    21     5     4   ar
    22     5     6    1
    23    19    20   ar
    24    19    24   ar
    25    32    24    1
    26    32    33    1
    27    20    21   ar
    28    27    28    1
    29    27    26    1
    30    24    23   ar
    31    28    31    1
    32    28    29    1
    33    26    31    1
    34    21    22   ar
    35    23    22   ar
