@<TRIPOS>MOLECULE
L3024_0_out.pdbqt
 33 35 0 0 0
SMALL
GASTEIGER

@<TRIPOS>ATOM
      1 C27         6.8680  -21.1560   -9.2910 C.ar    1  MOL1       -0.0240
      2 C28         6.2210  -20.9740  -10.5270 C.ar    1  MOL1       -0.0570
      3 C29         6.6780  -21.6400  -11.6690 C.ar    1  MOL1       -0.0610
      4 C30         7.7830  -22.4910  -11.5900 C.ar    1  MOL1       -0.0480
      5 C31         8.4340  -22.6830  -10.3660 C.ar    1  MOL1        0.0180
      6 Br32        9.9340  -23.8660  -10.2540 Br      1  MOL1       -0.0510
      7 C33         7.9830  -22.0150   -9.2230 C.ar    1  MOL1       -0.0430
      8  C6         6.4130  -20.3770   -8.0760 C.3     1  MOL1        0.0630
      9  C5         4.9350  -19.9750   -8.2310 C.3     1  MOL1        0.0510
     10  C1         1.7360  -22.0530   -7.4410 C.3     1  MOL1        0.0060
     11  N2         2.6460  -21.0690   -8.0110 N.am    1  MOL1       -0.3590
     12  C3         4.0200  -20.9940   -7.6160 C.2     1  MOL1        0.2220
     13  O4         4.4730  -21.7890   -6.7480 O.2     1  MOL1       -0.2750
     14  N7         7.2540  -19.1900   -7.8890 N.am    1  MOL1       -0.3460
     15  C8         6.7660  -17.8620   -8.0910 C.2     1  MOL1        0.2580
     16  O9         5.5740  -17.6710   -8.4530 O.2     1  MOL1       -0.2710
     17 C10         7.6610  -16.6810   -7.8600 C.3     1  MOL1        0.1670
     18 O11         8.0050  -16.0660   -9.0990 O.3     1  MOL1       -0.4800
     19 C12         7.7770  -16.6940  -10.3270 C.ar    1  MOL1        0.1660
     20 C13         6.7390  -16.2640  -11.1850 C.ar    1  MOL1        0.0120
     21 C21         6.5960  -16.8720  -12.4440 C.ar    1  MOL1       -0.0540
     22 C22         7.4360  -17.9180  -12.8250 C.ar    1  MOL1       -0.0580
     23 C23         8.4270  -18.3730  -11.9560 C.ar    1  MOL1       -0.0160
     24 C24         8.6030  -17.7680  -10.6980 C.ar    1  MOL1        0.1610
     25 C14         5.7760  -15.1690  -10.7850 C.3     1  MOL1        0.0280
     26 N15         5.1200  -14.5970  -11.9780 N.3     1  MOL1       -0.2870
     27 C16         5.2120  -13.1270  -11.9940 C.3     1  MOL1        0.0640
     28 C17         3.7140  -12.9590  -11.8320 C.3     1  MOL1        0.2720
     29 F18         3.0930  -12.4040  -12.9380 F       1  MOL1       -0.2040
     30 F19         3.3450  -12.3760  -10.6300 F       1  MOL1       -0.2040
     31 C20         3.6620  -14.4740  -11.8070 C.3     1  MOL1        0.0640
     32 O25         9.5860  -18.1960   -9.7950 O.3     1  MOL1       -0.4930
     33 C26        10.5830  -19.1680  -10.0910 C.3     1  MOL1        0.0780
@<TRIPOS>BOND
     1    29    28    1
     2    22    21   ar
     3    22    23   ar
     4    21    20   ar
     5    27    26    1
     6    27    28    1
     7    26    31    1
     8    26    25    1
     9    23    24   ar
    10    28    31    1
    11    28    30    1
    12     3     4   ar
    13     3     2   ar
    14     4     5   ar
    15    20    25    1
    16    20    19   ar
    17    24    19   ar
    18    24    32    1
    19     2     1   ar
    20     5     6    1
    21     5     7   ar
    22    19    18    1
    23    33    32    1
    24     1     7   ar
    25     1     8    1
    26    18    17    1
    27    16    15    2
    28     9     8    1
    29     9    12    1
    30    15    14   am
    31    15    17    1
    32     8    14    1
    33    11    12   am
    34    11    10    1
    35    12    13    2
