@<TRIPOS>MOLECULE
L3024_0_out.pdbqt
 33 35 0 0 0
SMALL
GASTEIGER

@<TRIPOS>ATOM
      1 C27         8.5440  -20.3600   -9.4380 C.ar    1  MOL1       -0.0240
      2 C28         7.3120  -20.2910  -10.1140 C.ar    1  MOL1       -0.0570
      3 C29         6.7260  -21.4500  -10.6360 C.ar    1  MOL1       -0.0610
      4 C30         7.3630  -22.6850  -10.4900 C.ar    1  MOL1       -0.0480
      5 C31         8.5880  -22.7670   -9.8170 C.ar    1  MOL1        0.0180
      6 Br32        9.4480  -24.4620   -9.5990 Br      1  MOL1       -0.0510
      7 C33         9.1790  -21.6110   -9.2990 C.ar    1  MOL1       -0.0430
      8  C6         9.2060  -19.0930   -8.9400 C.3     1  MOL1        0.0630
      9  C5         8.5390  -17.8630   -9.5810 C.3     1  MOL1        0.0510
     10  C1         5.7480  -16.4520   -7.2600 C.3     1  MOL1        0.0060
     11  N2         6.4540  -17.2440   -8.2560 N.am    1  MOL1       -0.3590
     12  C3         7.8360  -17.0210   -8.5560 C.2     1  MOL1        0.2220
     13  O4         8.4750  -16.1140   -7.9560 O.2     1  MOL1       -0.2750
     14  N7        10.6420  -19.1180   -9.2410 N.am    1  MOL1       -0.3460
     15  C8        11.6140  -18.4910   -8.4020 C.2     1  MOL1        0.2580
     16  O9        11.2550  -17.8760   -7.3630 O.2     1  MOL1       -0.2710
     17 C10        13.0720  -18.5690   -8.7420 C.3     1  MOL1        0.1670
     18 O11        13.8400  -18.8710   -7.5800 O.3     1  MOL1       -0.4800
     19 C12        15.2370  -18.8740   -7.5940 C.ar    1  MOL1        0.1660
     20 C13        15.9680  -17.6940   -7.8610 C.ar    1  MOL1        0.0120
     21 C21        17.3710  -17.7240   -7.7870 C.ar    1  MOL1       -0.0540
     22 C22        18.0390  -18.9150   -7.5020 C.ar    1  MOL1       -0.0580
     23 C23        17.3170  -20.0900   -7.2890 C.ar    1  MOL1       -0.0160
     24 C24        15.9110  -20.0790   -7.3380 C.ar    1  MOL1        0.1610
     25 C14        15.2810  -16.3960   -8.2260 C.3     1  MOL1        0.0280
     26 N15        15.4060  -15.4190   -7.1250 N.3     1  MOL1       -0.2870
     27 C16        14.6080  -15.8170   -5.9530 C.3     1  MOL1        0.0640
     28 C17        13.6730  -14.6320   -6.0960 C.3     1  MOL1        0.2720
     29 F18        13.7690  -13.7210   -5.0580 F       1  MOL1       -0.2040
     30 F19        12.3720  -14.9840   -6.4150 F       1  MOL1       -0.2040
     31 C20        14.5110  -14.2630   -7.3040 C.3     1  MOL1        0.0640
     32 O25        15.1490  -21.2380   -7.1300 O.3     1  MOL1       -0.4930
     33 C26        15.6860  -22.4940   -6.7270 C.3     1  MOL1        0.0780
@<TRIPOS>BOND
     1     3     4   ar
     2     3     2   ar
     3     4     5   ar
     4     2     1   ar
     5     5     6    1
     6     5     7   ar
     7     9     8    1
     8     9    12    1
     9     1     7   ar
    10     1     8    1
    11    14     8    1
    12    14    15   am
    13    17    15    1
    14    17    18    1
    15    12    11   am
    16    12    13    2
    17    15    16    2
    18    11    10    1
    19    25    20    1
    20    25    26    1
    21    20    21   ar
    22    20    19   ar
    23    21    22   ar
    24    19    18    1
    25    19    24   ar
    26    22    23   ar
    27    24    23   ar
    28    24    32    1
    29    31    26    1
    30    31    28    1
    31    32    33    1
    32    26    27    1
    33    30    28    1
    34    28    27    1
    35    28    29    1
