@<TRIPOS>MOLECULE
L3024_0_out.pdbqt
 33 35 0 0 0
SMALL
GASTEIGER

@<TRIPOS>ATOM
      1 C27         9.7790  -17.9560   -8.4870 C.ar    1  MOL1       -0.0240
      2 C28         9.2470  -16.6710   -8.2810 C.ar    1  MOL1       -0.0570
      3 C29         7.8620  -16.4700   -8.2760 C.ar    1  MOL1       -0.0610
      4 C30         6.9970  -17.5490   -8.4770 C.ar    1  MOL1       -0.0480
      5 C31         7.5130  -18.8340   -8.6800 C.ar    1  MOL1        0.0180
      6 Br32        6.3270  -20.3140   -8.9320 Br      1  MOL1       -0.0510
      7 C33         8.8970  -19.0370   -8.6900 C.ar    1  MOL1       -0.0430
      8  C6        11.2780  -18.1520   -8.5630 C.3     1  MOL1        0.0630
      9  C5        11.6130  -19.6540   -8.5790 C.3     1  MOL1        0.0510
     10  C1        13.8050  -20.8020   -5.5710 C.3     1  MOL1        0.0060
     11  N2        13.3890  -20.3370   -6.8860 N.am    1  MOL1       -0.3590
     12  C3        12.0100  -20.1440   -7.2170 C.2     1  MOL1        0.2220
     13  O4        11.1150  -20.3830   -6.3600 O.2     1  MOL1       -0.2750
     14  N7        11.9350  -17.4880   -7.4320 N.am    1  MOL1       -0.3460
     15  C8        13.2030  -16.8410   -7.5520 C.2     1  MOL1        0.2580
     16  O9        13.8100  -16.8320   -8.6560 O.2     1  MOL1       -0.2710
     17 C10        13.8190  -16.1540   -6.3700 C.3     1  MOL1        0.1670
     18 O11        14.5650  -17.0830   -5.5860 O.3     1  MOL1       -0.4800
     19 C12        15.9450  -16.9590   -5.4030 C.ar    1  MOL1        0.1660
     20 C13        16.4770  -16.0770   -4.4350 C.ar    1  MOL1        0.0120
     21 C21        17.8670  -16.0430   -4.2310 C.ar    1  MOL1       -0.0540
     22 C22        18.7160  -16.8320   -5.0060 C.ar    1  MOL1       -0.0580
     23 C23        18.1920  -17.6640   -5.9950 C.ar    1  MOL1       -0.0160
     24 C24        16.8020  -17.7310   -6.2050 C.ar    1  MOL1        0.1610
     25 C14        15.5920  -15.1670   -3.6130 C.3     1  MOL1        0.0280
     26 N15        15.5140  -15.6460   -2.2180 N.3     1  MOL1       -0.2870
     27 C16        14.1650  -15.4610   -1.6560 C.3     1  MOL1        0.0640
     28 C17        14.6470  -14.4390   -0.6450 C.3     1  MOL1        0.2720
     29 F18        14.5590  -14.8710    0.6670 F       1  MOL1       -0.2040
     30 F19        14.1400  -13.1670   -0.8520 F       1  MOL1       -0.2040
     31 C20        16.0180  -14.6480   -1.2590 C.3     1  MOL1        0.0640
     32 O25        16.2350  -18.5530   -7.1890 O.3     1  MOL1       -0.4930
     33 C26        16.9520  -19.5340   -7.9300 C.3     1  MOL1        0.0780
@<TRIPOS>BOND
     1     6     5    1
     2     7     5   ar
     3     7     1   ar
     4     5     4   ar
     5    16    15    2
     6     9     8    1
     7     9    12    1
     8     8     1    1
     9     8    14    1
    10     1     2   ar
    11     4     3   ar
    12     2     3   ar
    13    33    32    1
    14    15    14   am
    15    15    17    1
    16    12    11   am
    17    12    13    2
    18    32    24    1
    19    11    10    1
    20    17    18    1
    21    24    23   ar
    22    24    19   ar
    23    23    22   ar
    24    18    19    1
    25    19    20   ar
    26    22    21   ar
    27    20    21   ar
    28    20    25    1
    29    25    26    1
    30    26    27    1
    31    26    31    1
    32    27    28    1
    33    31    28    1
    34    30    28    1
    35    28    29    1
