@<TRIPOS>MOLECULE
L3024_0_out.pdbqt
 33 35 0 0 0
SMALL
GASTEIGER

@<TRIPOS>ATOM
      1 C27        10.3230  -18.7250   -9.2940 C.ar    1  MOL1       -0.0240
      2 C28        10.1820  -18.8960  -10.6830 C.ar    1  MOL1       -0.0570
      3 C29         9.0050  -18.5010  -11.3290 C.ar    1  MOL1       -0.0610
      4 C30         7.9600  -17.9330  -10.5950 C.ar    1  MOL1       -0.0480
      5 C31         8.0890  -17.7550   -9.2130 C.ar    1  MOL1        0.0180
      6 Br32        6.6660  -16.9580   -8.2130 Br      1  MOL1       -0.0510
      7 C33         9.2620  -18.1540   -8.5640 C.ar    1  MOL1       -0.0430
      8  C6        11.5700  -19.2220   -8.5930 C.3     1  MOL1        0.0630
      9  C5        11.1830  -20.0750   -7.3720 C.3     1  MOL1        0.0510
     10  C1        13.9590  -22.5440   -6.2010 C.3     1  MOL1        0.0060
     11  N2        13.1200  -21.3620   -6.3320 N.am    1  MOL1       -0.3590
     12  C3        12.0370  -21.3050   -7.2670 C.2     1  MOL1        0.2220
     13  O4        11.7910  -22.2940   -8.0100 O.2     1  MOL1       -0.2750
     14  N7        12.4100  -18.0890   -8.1880 N.am    1  MOL1       -0.3460
     15  C8        13.7580  -17.9340   -8.6340 C.2     1  MOL1        0.2580
     16  O9        14.2780  -18.7900   -9.3980 O.2     1  MOL1       -0.2710
     17 C10        14.5650  -16.7430   -8.2100 C.3     1  MOL1        0.1670
     18 O11        15.9560  -16.9910   -8.3960 O.3     1  MOL1       -0.4800
     19 C12        16.7720  -17.4520   -7.3590 C.ar    1  MOL1        0.1660
     20 C13        16.8160  -16.7880   -6.1120 C.ar    1  MOL1        0.0120
     21 C21        17.5890  -17.3320   -5.0730 C.ar    1  MOL1       -0.0540
     22 C22        18.3430  -18.4870   -5.2810 C.ar    1  MOL1       -0.0580
     23 C23        18.3370  -19.1130   -6.5280 C.ar    1  MOL1       -0.0160
     24 C24        17.5550  -18.5980   -7.5780 C.ar    1  MOL1        0.1610
     25 C14        16.0550  -15.5040   -5.8660 C.3     1  MOL1        0.0280
     26 N15        14.7430  -15.7930   -5.2500 N.3     1  MOL1       -0.2870
     27 C16        13.8470  -14.6250   -5.3110 C.3     1  MOL1        0.0640
     28 C17        13.8440  -14.4570   -3.8050 C.3     1  MOL1        0.2720
     29 F18        12.6140  -14.7050   -3.2200 F       1  MOL1       -0.2040
     30 F19        14.4440  -13.2850   -3.3730 F       1  MOL1       -0.2040
     31 C20        14.7750  -15.6530   -3.7840 C.3     1  MOL1        0.0640
     32 O25        17.5220  -19.1960   -8.8460 O.3     1  MOL1       -0.4930
     33 C26        17.3770  -20.5940   -9.0730 C.3     1  MOL1        0.0780
@<TRIPOS>BOND
     1     3     2   ar
     2     3     4   ar
     3     2     1   ar
     4     4     5   ar
     5    16    15    2
     6     1     8    1
     7     1     7   ar
     8     5     7   ar
     9     5     6    1
    10    33    32    1
    11    32    24    1
    12    15    17    1
    13    15    14   am
    14     8    14    1
    15     8     9    1
    16    18    17    1
    17    18    19    1
    18    13    12    2
    19    24    19   ar
    20    24    23   ar
    21     9    12    1
    22    19    20   ar
    23    12    11   am
    24    23    22   ar
    25    11    10    1
    26    20    25    1
    27    20    21   ar
    28    25    26    1
    29    27    26    1
    30    27    28    1
    31    22    21   ar
    32    26    31    1
    33    28    31    1
    34    28    30    1
    35    28    29    1
