@<TRIPOS>MOLECULE
L3024_0_out.pdbqt
 33 35 0 0 0
SMALL
GASTEIGER

@<TRIPOS>ATOM
      1 C27         0.4630  -22.5750   -9.6570 C.ar    1  MOL1       -0.0240
      2 C28        -0.2100  -23.7750   -9.3640 C.ar    1  MOL1       -0.0570
      3 C29        -1.1470  -24.2980  -10.2620 C.ar    1  MOL1       -0.0610
      4 C30        -1.4220  -23.6290  -11.4580 C.ar    1  MOL1       -0.0480
      5 C31        -0.7570  -22.4360  -11.7630 C.ar    1  MOL1        0.0180
      6 Br32       -1.1180  -21.5330  -13.4110 Br      1  MOL1       -0.0510
      7 C33         0.1760  -21.9080  -10.8660 C.ar    1  MOL1       -0.0430
      8  C6         1.4210  -21.9780   -8.6490 C.3     1  MOL1        0.0630
      9  C5         0.7540  -20.7940   -7.9250 C.3     1  MOL1        0.0510
     10  C1        -3.1330  -20.5510   -7.9130 C.3     1  MOL1        0.0060
     11  N2        -1.7280  -20.2910   -8.1910 N.am    1  MOL1       -0.3590
     12  C3        -0.6850  -21.0810   -7.6100 C.2     1  MOL1        0.2220
     13  O4        -0.9700  -22.0290   -6.8280 O.2     1  MOL1       -0.2750
     14  N7         2.6560  -21.5480   -9.3130 N.am    1  MOL1       -0.3460
     15  C8         3.9080  -21.4640   -8.6300 C.2     1  MOL1        0.2580
     16  O9         3.9840  -21.7540   -7.4060 O.2     1  MOL1       -0.2710
     17 C10         5.1460  -21.0440   -9.3640 C.3     1  MOL1        0.1670
     18 O11         6.1240  -20.5510   -8.4510 O.3     1  MOL1       -0.4800
     19 C12         7.3150  -19.9640   -8.8870 C.ar    1  MOL1        0.1660
     20 C13         7.4120  -18.5670   -9.0830 C.ar    1  MOL1        0.0120
     21 C21         8.6510  -18.0110   -9.4450 C.ar    1  MOL1       -0.0540
     22 C22         9.7600  -18.8300   -9.6550 C.ar    1  MOL1       -0.0580
     23 C23         9.6490  -20.2130   -9.5100 C.ar    1  MOL1       -0.0160
     24 C24         8.4240  -20.7910   -9.1280 C.ar    1  MOL1        0.1610
     25 C14         6.2180  -17.6540   -8.9170 C.3     1  MOL1        0.0280
     26 N15         5.9710  -17.3850   -7.4850 N.3     1  MOL1       -0.2870
     27 C16         4.5610  -17.6150   -7.1270 C.3     1  MOL1        0.0640
     28 C17         4.3220  -16.1480   -6.8260 C.3     1  MOL1        0.2720
     29 F18         4.0680  -15.8890   -5.4910 F       1  MOL1       -0.2040
     30 F19         3.4320  -15.5390   -7.6950 F       1  MOL1       -0.2040
     31 C20         5.7740  -15.9500   -7.2150 C.3     1  MOL1        0.0640
     32 O25         8.2700  -22.1760   -8.9720 O.3     1  MOL1       -0.4930
     33 C26         7.9100  -23.0700  -10.0200 C.3     1  MOL1        0.0780
@<TRIPOS>BOND
     1     6     5    1
     2     5     4   ar
     3     5     7   ar
     4     4     3   ar
     5     7     1   ar
     6     3     2   ar
     7    33    32    1
     8     1     2   ar
     9     1     8    1
    10    22    23   ar
    11    22    21   ar
    12    23    24   ar
    13    21    20   ar
    14    17    15    1
    15    17    18    1
    16    14     8    1
    17    14    15   am
    18    24    32    1
    19    24    19   ar
    20    20    25    1
    21    20    19   ar
    22    25    26    1
    23    19    18    1
    24     8     9    1
    25    15    16    2
    26    11    10    1
    27    11    12   am
    28     9    12    1
    29    30    28    1
    30    12    13    2
    31    26    31    1
    32    26    27    1
    33    31    28    1
    34    27    28    1
    35    28    29    1
