@<TRIPOS>MOLECULE
L3024_0_out.pdbqt
 33 35 0 0 0
SMALL
GASTEIGER

@<TRIPOS>ATOM
      1 C27         8.0790  -20.0370   -9.3570 C.ar    1  MOL1       -0.0240
      2 C28         6.7770  -20.1650   -9.8750 C.ar    1  MOL1       -0.0570
      3 C29         6.3260  -21.3990  -10.3570 C.ar    1  MOL1       -0.0610
      4 C30         7.1680  -22.5140  -10.3260 C.ar    1  MOL1       -0.0480
      5 C31         8.4640  -22.4000   -9.8110 C.ar    1  MOL1        0.0180
      6 Br32        9.6090  -23.9320   -9.7500 Br      1  MOL1       -0.0510
      7 C33         8.9210  -21.1670   -9.3340 C.ar    1  MOL1       -0.0430
      8  C6         8.5840  -18.6830   -8.9060 C.3     1  MOL1        0.0630
      9  C5         7.6410  -17.5740   -9.4080 C.3     1  MOL1        0.0510
     10  C1         5.1730  -16.0950   -6.7830 C.3     1  MOL1        0.0060
     11  N2         5.7250  -16.8670   -7.8860 N.am    1  MOL1       -0.3590
     12  C3         7.1000  -16.7560   -8.2720 C.2     1  MOL1        0.2220
     13  O4         7.8680  -15.9690   -7.6550 O.2     1  MOL1       -0.2750
     14  N7         9.9490  -18.4610   -9.3950 N.am    1  MOL1       -0.3460
     15  C8        11.0230  -18.0820   -8.5320 C.2     1  MOL1        0.2580
     16  O9        10.8190  -17.9140   -7.3010 O.2     1  MOL1       -0.2710
     17 C10        12.4060  -17.8930   -9.0800 C.3     1  MOL1        0.1670
     18 O11        13.3720  -17.9730   -8.0350 O.3     1  MOL1       -0.4800
     19 C12        14.7010  -17.5840   -8.2230 C.ar    1  MOL1        0.1660
     20 C13        15.1300  -16.2730   -7.9130 C.ar    1  MOL1        0.0120
     21 C21        16.4910  -15.9490   -8.0420 C.ar    1  MOL1       -0.0540
     22 C22        17.4020  -16.8920   -8.5160 C.ar    1  MOL1       -0.0580
     23 C23        16.9680  -18.1700   -8.8690 C.ar    1  MOL1       -0.0160
     24 C24        15.6130  -18.5250   -8.7290 C.ar    1  MOL1        0.1610
     25 C14        14.1620  -15.2080   -7.4470 C.3     1  MOL1        0.0280
     26 N15        13.5600  -15.5880   -6.1530 N.3     1  MOL1       -0.2870
     27 C16        13.4950  -14.4430   -5.2290 C.3     1  MOL1        0.0640
     28 C17        14.4870  -15.0680   -4.2680 C.3     1  MOL1        0.2720
     29 F18        13.9370  -15.4080   -3.0450 F       1  MOL1       -0.2040
     30 F19        15.6830  -14.3740   -4.1730 F       1  MOL1       -0.2040
     31 C20        14.5370  -16.2210   -5.2510 C.3     1  MOL1        0.0640
     32 O25        15.1360  -19.7980   -9.0740 O.3     1  MOL1       -0.4930
     33 C26        15.9280  -20.9810   -9.0750 C.3     1  MOL1        0.0780
@<TRIPOS>BOND
     1     3     4   ar
     2     3     2   ar
     3     4     5   ar
     4     2     1   ar
     5     5     6    1
     6     5     7   ar
     7     9     8    1
     8     9    12    1
     9    14     8    1
    10    14    15   am
    11     1     7   ar
    12     1     8    1
    13    17    15    1
    14    17    18    1
    15    33    32    1
    16    32    24    1
    17    23    24   ar
    18    23    22   ar
    19    24    19   ar
    20    15    16    2
    21    22    21   ar
    22    12    11   am
    23    12    13    2
    24    19    18    1
    25    19    20   ar
    26    21    20   ar
    27    20    25    1
    28    11    10    1
    29    25    26    1
    30    26    31    1
    31    26    27    1
    32    31    28    1
    33    27    28    1
    34    28    30    1
    35    28    29    1
