@<TRIPOS>MOLECULE
L3024_0_out.pdbqt
 33 35 0 0 0
SMALL
GASTEIGER

@<TRIPOS>ATOM
      1 C27        15.2880  -18.9640   -8.4500 C.ar    1  MOL1       -0.0240
      2 C28        15.9600  -18.1440   -9.3740 C.ar    1  MOL1       -0.0570
      3 C29        17.0480  -18.6400  -10.1000 C.ar    1  MOL1       -0.0610
      4 C30        17.4750  -19.9570   -9.9120 C.ar    1  MOL1       -0.0480
      5 C31        16.8130  -20.7850   -8.9980 C.ar    1  MOL1        0.0180
      6 Br32       17.3840  -22.5950   -8.7570 Br      1  MOL1       -0.0510
      7 C33        15.7280  -20.2910   -8.2660 C.ar    1  MOL1       -0.0430
      8  C6        14.1590  -18.3980   -7.6160 C.3     1  MOL1        0.0630
      9  C5        14.6190  -18.2200   -6.1570 C.3     1  MOL1        0.0510
     10  C1        13.7390  -14.4270   -6.0520 C.3     1  MOL1        0.0060
     11  N2        13.7760  -15.8320   -6.4300 N.am    1  MOL1       -0.3590
     12  C3        14.6110  -16.7750   -5.7500 C.2     1  MOL1        0.2220
     13  O4        15.3480  -16.3960   -4.7990 O.2     1  MOL1       -0.2750
     14  N7        12.9870  -19.2770   -7.6840 N.am    1  MOL1       -0.3460
     15  C8        11.7610  -18.8780   -8.3010 C.2     1  MOL1        0.2580
     16  O9        11.6490  -17.7290   -8.8060 O.2     1  MOL1       -0.2710
     17 C10        10.6010  -19.8260   -8.3660 C.3     1  MOL1        0.1670
     18 O11        10.1400  -19.9580   -9.7080 O.3     1  MOL1       -0.4800
     19 C12         8.9680  -20.6510  -10.0250 C.ar    1  MOL1        0.1660
     20 C13         7.7450  -19.9690  -10.2170 C.ar    1  MOL1        0.0120
     21 C21         6.6100  -20.6970  -10.6120 C.ar    1  MOL1       -0.0540
     22 C22         6.6740  -22.0820  -10.7650 C.ar    1  MOL1       -0.0580
     23 C23         7.8700  -22.7590  -10.5260 C.ar    1  MOL1       -0.0160
     24 C24         9.0260  -22.0490  -10.1490 C.ar    1  MOL1        0.1610
     25 C14         7.6240  -18.4760  -10.0080 C.3     1  MOL1        0.0280
     26 N15         7.3870  -18.1730   -8.5820 N.3     1  MOL1       -0.2870
     27 C16         5.9500  -18.1680   -8.2600 C.3     1  MOL1        0.0640
     28 C17         5.9480  -16.6820   -7.9570 C.3     1  MOL1        0.2720
     29 F18         5.7070  -16.3870   -6.6260 F       1  MOL1       -0.2040
     30 F19         5.1930  -15.9330   -8.8440 F       1  MOL1       -0.2040
     31 C20         7.4230  -16.7260   -8.3080 C.3     1  MOL1        0.0640
     32 O25        10.2470  -22.6920   -9.8990 O.3     1  MOL1       -0.4930
     33 C26        10.4010  -23.8270   -9.0530 C.3     1  MOL1        0.0780
@<TRIPOS>BOND
     1    22    21   ar
     2    22    23   ar
     3    21    20   ar
     4    23    24   ar
     5    20    19   ar
     6    20    25    1
     7    24    19   ar
     8    24    32    1
     9     3     4   ar
    10     3     2   ar
    11    19    18    1
    12    25    26    1
    13     4     5   ar
    14    32    33    1
    15    18    17    1
    16     2     1   ar
    17     5     6    1
    18     5     7   ar
    19    30    28    1
    20    16    15    2
    21    26    31    1
    22    26    27    1
    23     1     7   ar
    24     1     8    1
    25    17    15    1
    26    31    28    1
    27    15    14   am
    28    27    28    1
    29    28    29    1
    30    14     8    1
    31     8     9    1
    32    11    10    1
    33    11    12   am
    34     9    12    1
    35    12    13    2
