@<TRIPOS>MOLECULE
L3024_0_out.pdbqt
 33 35 0 0 0
SMALL
GASTEIGER

@<TRIPOS>ATOM
      1 C27        12.2840  -18.3080   -7.9690 C.ar    1  MOL1       -0.0240
      2 C28        11.9960  -19.6610   -7.7130 C.ar    1  MOL1       -0.0570
      3 C29        10.6740  -20.1190   -7.7290 C.ar    1  MOL1       -0.0610
      4 C30         9.6280  -19.2330   -7.9990 C.ar    1  MOL1       -0.0480
      5 C31         9.9010  -17.8850   -8.2590 C.ar    1  MOL1        0.0180
      6 Br32        8.4700  -16.6770   -8.6510 Br      1  MOL1       -0.0510
      7 C33        11.2210  -17.4220   -8.2390 C.ar    1  MOL1       -0.0430
      8  C6        13.7090  -17.8060   -7.8790 C.3     1  MOL1        0.0630
      9  C5        14.6920  -18.9830   -8.0180 C.3     1  MOL1        0.0510
     10  C1        18.4980  -18.9550   -8.8450 C.3     1  MOL1        0.0060
     11  N2        17.1830  -19.3690   -8.3770 N.am    1  MOL1       -0.3590
     12  C3        16.0360  -18.5220   -8.5020 C.2     1  MOL1        0.2220
     13  O4        16.1480  -17.3800   -9.0250 O.2     1  MOL1       -0.2750
     14  N7        13.9200  -17.1040   -6.6080 N.am    1  MOL1       -0.3460
     15  C8        14.1530  -15.6960   -6.5370 C.2     1  MOL1        0.2580
     16  O9        14.1930  -15.0050   -7.5900 O.2     1  MOL1       -0.2710
     17 C10        14.3370  -15.0240   -5.2100 C.3     1  MOL1        0.1670
     18 O11        15.5530  -15.4500   -4.5990 O.3     1  MOL1       -0.4800
     19 C12        15.5920  -16.5010   -3.6800 C.ar    1  MOL1        0.1660
     20 C13        14.9080  -16.4180   -2.4450 C.ar    1  MOL1        0.0120
     21 C21        14.9090  -17.5290   -1.5850 C.ar    1  MOL1       -0.0540
     22 C22        15.6140  -18.6840   -1.9210 C.ar    1  MOL1       -0.0580
     23 C23        16.3290  -18.7460   -3.1170 C.ar    1  MOL1       -0.0160
     24 C24        16.3270  -17.6530   -4.0040 C.ar    1  MOL1        0.1610
     25 C14        14.1770  -15.1630   -2.0220 C.3     1  MOL1        0.0280
     26 N15        15.1340  -14.1440   -1.5460 N.3     1  MOL1       -0.2870
     27 C16        16.3050  -14.7600   -0.8990 C.3     1  MOL1        0.0640
     28 C17        15.9460  -14.1910    0.4600 C.3     1  MOL1        0.2720
     29 F18        16.8490  -13.2500    0.9240 F       1  MOL1       -0.2040
     30 F19        15.6080  -15.1550    1.3960 F       1  MOL1       -0.2040
     31 C20        14.7460  -13.5840   -0.2400 C.3     1  MOL1        0.0640
     32 O25        17.0330  -17.6750   -5.2150 O.3     1  MOL1       -0.4930
     33 C26        18.3420  -17.1440   -5.3940 C.3     1  MOL1        0.0780
@<TRIPOS>BOND
     1    13    12    2
     2    10    11    1
     3     6     5    1
     4    12    11   am
     5    12     9    1
     6     5     7   ar
     7     5     4   ar
     8     7     1   ar
     9     9     8    1
    10     4     3   ar
    11     1     8    1
    12     1     2   ar
    13     8    14    1
    14     3     2   ar
    15    16    15    2
    16    14    15   am
    17    15    17    1
    18    33    32    1
    19    32    24    1
    20    17    18    1
    21    18    19    1
    22    24    19   ar
    23    24    23   ar
    24    19    20   ar
    25    23    22   ar
    26    20    25    1
    27    20    21   ar
    28    25    26    1
    29    22    21   ar
    30    26    27    1
    31    26    31    1
    32    27    28    1
    33    31    28    1
    34    28    29    1
    35    28    30    1
