@<TRIPOS>MOLECULE
L3024_0_out.pdbqt
 33 35 0 0 0
SMALL
GASTEIGER

@<TRIPOS>ATOM
      1 C27         8.9730  -20.7790   -9.5610 C.ar    1  MOL1       -0.0240
      2 C28         7.6980  -21.2650   -9.9030 C.ar    1  MOL1       -0.0570
      3 C29         7.4690  -22.6410  -10.0050 C.ar    1  MOL1       -0.0610
      4 C30         8.5090  -23.5440   -9.7670 C.ar    1  MOL1       -0.0480
      5 C31         9.7810  -23.0740   -9.4230 C.ar    1  MOL1        0.0180
      6 Br32       11.1980  -24.3120   -9.0760 Br      1  MOL1       -0.0510
      7 C33        10.0150  -21.6990   -9.3260 C.ar    1  MOL1       -0.0430
      8  C6         9.2300  -19.2880   -9.5250 C.3     1  MOL1        0.0630
      9  C5         8.3120  -18.5690  -10.5290 C.3     1  MOL1        0.0510
     10  C1         6.0270  -16.7870   -7.9270 C.3     1  MOL1        0.0060
     11  N2         6.8350  -17.7890   -8.6070 N.am    1  MOL1       -0.3590
     12  C3         7.4770  -17.5180   -9.8570 C.2     1  MOL1        0.2220
     13  O4         7.3480  -16.3880  -10.4030 O.2     1  MOL1       -0.2750
     14  N7        10.6390  -19.0080   -9.8210 N.am    1  MOL1       -0.3460
     15  C8        11.5360  -18.4630   -8.8510 C.2     1  MOL1        0.2580
     16  O9        11.1290  -18.1930   -7.6900 O.2     1  MOL1       -0.2710
     17 C10        12.9740  -18.2210   -9.2000 C.3     1  MOL1        0.1670
     18 O11        13.7310  -17.9340   -8.0260 O.3     1  MOL1       -0.4800
     19 C12        14.6790  -16.9080   -7.9870 C.ar    1  MOL1        0.1660
     20 C13        16.0150  -17.1330   -8.3900 C.ar    1  MOL1        0.0120
     21 C21        16.9150  -16.0540   -8.4100 C.ar    1  MOL1       -0.0540
     22 C22        16.5110  -14.7860   -7.9930 C.ar    1  MOL1       -0.0580
     23 C23        15.2050  -14.5780   -7.5480 C.ar    1  MOL1       -0.0160
     24 C24        14.2800  -15.6390   -7.5380 C.ar    1  MOL1        0.1610
     25 C14        16.5050  -18.5050   -8.7980 C.3     1  MOL1        0.0280
     26 N15        16.7290  -19.3480   -7.6060 N.3     1  MOL1       -0.2870
     27 C16        16.6840  -18.5550   -6.3660 C.3     1  MOL1        0.0640
     28 C17        18.1510  -18.7960   -6.0710 C.3     1  MOL1        0.2720
     29 F18        18.3730  -19.5680   -4.9440 F       1  MOL1       -0.2040
     30 F19        18.9270  -17.6500   -6.1270 F       1  MOL1       -0.2040
     31 C20        18.1610  -19.5930   -7.3610 C.3     1  MOL1        0.0640
     32 O25        12.9590  -15.4710   -7.0980 O.3     1  MOL1       -0.4930
     33 C26        12.5880  -15.1830   -5.7540 C.3     1  MOL1        0.0780
@<TRIPOS>BOND
     1     9    12    1
     2     9     8    1
     3    13    12    2
     4     3     2   ar
     5     3     4   ar
     6     2     1   ar
     7    12    11   am
     8    14     8    1
     9    14    15   am
    10     4     5   ar
    11     1     8    1
    12     1     7   ar
    13     5     7   ar
    14     5     6    1
    15    17    15    1
    16    17    18    1
    17    15    16    2
    18    25    20    1
    19    25    26    1
    20    11    10    1
    21    21    20   ar
    22    21    22   ar
    23    20    19   ar
    24    18    19    1
    25    22    23   ar
    26    19    24   ar
    27    26    31    1
    28    26    27    1
    29    23    24   ar
    30    24    32    1
    31    31    28    1
    32    32    33    1
    33    27    28    1
    34    30    28    1
    35    28    29    1
