@<TRIPOS>MOLECULE
L3024_0_out.pdbqt
 33 35 0 0 0
SMALL
GASTEIGER

@<TRIPOS>ATOM
      1 C27        17.7910  -17.6510   -8.8470 C.ar    1  MOL1       -0.0240
      2 C28        18.6000  -18.8030   -8.8260 C.ar    1  MOL1       -0.0570
      3 C29        19.4610  -19.0820   -9.8920 C.ar    1  MOL1       -0.0610
      4 C30        19.5240  -18.2170  -10.9880 C.ar    1  MOL1       -0.0480
      5 C31        18.7280  -17.0670  -11.0210 C.ar    1  MOL1        0.0180
      6 Br32       18.8310  -15.8730  -12.5120 Br      1  MOL1       -0.0510
      7 C33        17.8620  -16.7870   -9.9590 C.ar    1  MOL1       -0.0430
      8  C6        16.8100  -17.3940   -7.7250 C.3     1  MOL1        0.0630
      9  C5        16.7370  -15.8870   -7.4230 C.3     1  MOL1        0.0510
     10  C1        13.4820  -14.6920   -5.6470 C.3     1  MOL1        0.0060
     11  N2        14.8460  -15.1400   -5.8880 N.am    1  MOL1       -0.3590
     12  C3        15.3210  -15.4360   -7.2060 C.2     1  MOL1        0.2220
     13  O4        14.5500  -15.3180   -8.1970 O.2     1  MOL1       -0.2750
     14  N7        17.2020  -18.1430   -6.5260 N.am    1  MOL1       -0.3460
     15  C8        16.2470  -18.7340   -5.6420 C.2     1  MOL1        0.2580
     16  O9        15.0130  -18.6170   -5.8690 O.2     1  MOL1       -0.2710
     17 C10        16.7030  -19.5110   -4.4430 C.3     1  MOL1        0.1670
     18 O11        17.3540  -18.6530   -3.5100 O.3     1  MOL1       -0.4800
     19 C12        16.7430  -17.4970   -3.0140 C.ar    1  MOL1        0.1660
     20 C13        15.5960  -17.5720   -2.1910 C.ar    1  MOL1        0.0120
     21 C21        15.0620  -16.3900   -1.6510 C.ar    1  MOL1       -0.0540
     22 C22        15.6260  -15.1520   -1.9600 C.ar    1  MOL1       -0.0580
     23 C23        16.7270  -15.0770   -2.8130 C.ar    1  MOL1       -0.0160
     24 C24        17.2920  -16.2490   -3.3510 C.ar    1  MOL1        0.1610
     25 C14        14.9260  -18.8910   -1.8770 C.3     1  MOL1        0.0280
     26 N15        15.5600  -19.5250   -0.7030 N.3     1  MOL1       -0.2870
     27 C16        15.1070  -20.9160   -0.5280 C.3     1  MOL1        0.0640
     28 C17        14.4020  -20.6000    0.7760 C.3     1  MOL1        0.2720
     29 F18        14.9770  -21.2060    1.8800 F       1  MOL1       -0.2040
     30 F19        13.0250  -20.7380    0.7130 F       1  MOL1       -0.2040
     31 C20        14.8750  -19.1760    0.5540 C.3     1  MOL1        0.0640
     32 O25        18.3980  -16.2160   -4.2120 O.3     1  MOL1       -0.4930
     33 C26        19.4280  -15.2350   -4.1640 C.3     1  MOL1        0.0780
@<TRIPOS>BOND
     1     6     5    1
     2     5     4   ar
     3     5     7   ar
     4     4     3   ar
     5     7     1   ar
     6     3     2   ar
     7     1     2   ar
     8     1     8    1
     9    13    12    2
    10     8     9    1
    11     8    14    1
    12     9    12    1
    13    12    11   am
    14    14    15   am
    15    11    10    1
    16    16    15    2
    17    15    17    1
    18    17    18    1
    19    32    33    1
    20    32    24    1
    21    18    19    1
    22    24    19   ar
    23    24    23   ar
    24    19    20   ar
    25    23    22   ar
    26    20    25    1
    27    20    21   ar
    28    22    21   ar
    29    25    26    1
    30    26    27    1
    31    26    31    1
    32    27    28    1
    33    31    28    1
    34    30    28    1
    35    28    29    1
