@<TRIPOS>MOLECULE
L3024_0_out.pdbqt
 33 35 0 0 0
SMALL
GASTEIGER

@<TRIPOS>ATOM
      1 C27         7.4690  -17.1310  -10.3000 C.ar    1  MOL1       -0.0240
      2 C28         7.6780  -17.8430  -11.4950 C.ar    1  MOL1       -0.0570
      3 C29         7.0990  -17.4030  -12.6910 C.ar    1  MOL1       -0.0610
      4 C30         6.3080  -16.2520  -12.7050 C.ar    1  MOL1       -0.0480
      5 C31         6.0950  -15.5330  -11.5240 C.ar    1  MOL1        0.0180
      6 Br32        5.0290  -13.9440  -11.5480 Br      1  MOL1       -0.0510
      7 C33         6.6670  -15.9720  -10.3260 C.ar    1  MOL1       -0.0430
      8  C6         8.0380  -17.6540   -8.9980 C.3     1  MOL1        0.0630
      9  C5         9.5660  -17.7960   -9.1110 C.3     1  MOL1        0.0510
     10  C1        11.0790  -21.2620   -8.1760 C.3     1  MOL1        0.0060
     11  N2        10.5710  -20.1300   -8.9380 N.am    1  MOL1       -0.3590
     12  C3        10.0730  -18.9510   -8.2960 C.2     1  MOL1        0.2220
     13  O4        10.0600  -18.8740   -7.0370 O.2     1  MOL1       -0.2750
     14  N7         7.4230  -18.9410   -8.6550 N.am    1  MOL1       -0.3460
     15  C8         6.1210  -19.0410   -8.0740 C.2     1  MOL1        0.2580
     16  O9         5.4550  -18.0010   -7.8260 O.2     1  MOL1       -0.2710
     17 C10         5.5290  -20.3830   -7.7670 C.3     1  MOL1        0.1670
     18 O11         4.1340  -20.3910   -8.0570 O.3     1  MOL1       -0.4800
     19 C12         3.5480  -21.3770   -8.8560 C.ar    1  MOL1        0.1660
     20 C13         4.2450  -21.9400   -9.9500 C.ar    1  MOL1        0.0120
     21 C21         3.6490  -22.9830  -10.6780 C.ar    1  MOL1       -0.0540
     22 C22         2.3660  -23.4270  -10.3580 C.ar    1  MOL1       -0.0580
     23 C23         1.6600  -22.8360   -9.3100 C.ar    1  MOL1       -0.0160
     24 C24         2.2440  -21.8020   -8.5540 C.ar    1  MOL1        0.1610
     25 C14         5.6150  -21.4480  -10.3600 C.3     1  MOL1        0.0280
     26 N15         6.5360  -22.5880  -10.5530 N.3     1  MOL1       -0.2870
     27 C16         7.7670  -22.4290   -9.7610 C.3     1  MOL1        0.0640
     28 C17         8.6330  -22.2970  -10.9990 C.3     1  MOL1        0.2720
     29 F18         9.5130  -23.3500  -11.1770 F       1  MOL1       -0.2040
     30 F19         9.2160  -21.0480  -11.1410 F       1  MOL1       -0.2040
     31 C20         7.3410  -22.4500  -11.7780 C.3     1  MOL1        0.0640
     32 O25         1.5690  -21.1810   -7.4940 O.3     1  MOL1       -0.4930
     33 C26         0.5040  -20.2500   -7.6530 C.3     1  MOL1        0.0780
@<TRIPOS>BOND
     1     4     3   ar
     2     4     5   ar
     3     3     2   ar
     4    31    28    1
     5    31    26    1
     6     6     5    1
     7     5     7   ar
     8     2     1   ar
     9    29    28    1
    10    30    28    1
    11    28    27    1
    12    21    22   ar
    13    21    20   ar
    14    26    25    1
    15    26    27    1
    16    25    20    1
    17    22    23   ar
    18     7     1   ar
    19     1     8    1
    20    20    19   ar
    21    23    24   ar
    22     9     8    1
    23     9    12    1
    24     8    14    1
    25    11    12   am
    26    11    10    1
    27    19    24   ar
    28    19    18    1
    29    14    15   am
    30    24    32    1
    31    12    13    2
    32    15    16    2
    33    15    17    1
    34    18    17    1
    35    33    32    1
