@<TRIPOS>MOLECULE
L3024_0_out.pdbqt
 33 35 0 0 0
SMALL
GASTEIGER

@<TRIPOS>ATOM
      1 C27        12.6220  -19.6600   -7.8190 C.ar    1  MOL1       -0.0240
      2 C28        11.9030  -20.4600   -6.9130 C.ar    1  MOL1       -0.0570
      3 C29        12.3840  -21.7220   -6.5470 C.ar    1  MOL1       -0.0610
      4 C30        13.5850  -22.1960   -7.0800 C.ar    1  MOL1       -0.0480
      5 C31        14.3130  -21.4090   -7.9800 C.ar    1  MOL1        0.0180
      6 Br32       15.9680  -22.0500   -8.6930 Br      1  MOL1       -0.0510
      7 C33        13.8320  -20.1490   -8.3530 C.ar    1  MOL1       -0.0430
      8  C6        12.0590  -18.3280   -8.2660 C.3     1  MOL1        0.0630
      9  C5        12.1260  -18.2150   -9.8000 C.3     1  MOL1        0.0510
     10  C1         8.3250  -18.9120  -10.2860 C.3     1  MOL1        0.0060
     11  N2         9.6040  -18.5500   -9.6920 N.am    1  MOL1       -0.3590
     12  C3        10.8240  -18.6050  -10.4380 C.2     1  MOL1        0.2220
     13  O4        10.8130  -18.9800  -11.6420 O.2     1  MOL1       -0.2750
     14  N7        12.7950  -17.2280   -7.6340 N.am    1  MOL1       -0.3460
     15  C8        12.1620  -16.2640   -6.7900 C.2     1  MOL1        0.2580
     16  O9        10.9230  -16.3290   -6.5690 O.2     1  MOL1       -0.2710
     17 C10        12.9660  -15.1740   -6.1480 C.3     1  MOL1        0.1670
     18 O11        14.3490  -15.5190   -6.1280 O.3     1  MOL1       -0.4800
     19 C12        14.9140  -16.2530   -5.0820 C.ar    1  MOL1        0.1660
     20 C13        15.7030  -17.3990   -5.3360 C.ar    1  MOL1        0.0120
     21 C21        16.3170  -18.0600   -4.2590 C.ar    1  MOL1       -0.0540
     22 C22        16.1130  -17.6230   -2.9500 C.ar    1  MOL1       -0.0580
     23 C23        15.2940  -16.5220   -2.6980 C.ar    1  MOL1       -0.0160
     24 C24        14.6840  -15.8320   -3.7620 C.ar    1  MOL1        0.1610
     25 C14        15.9040  -17.9340   -6.7360 C.3     1  MOL1        0.0280
     26 N15        16.9970  -17.2080   -7.4140 N.3     1  MOL1       -0.2870
     27 C16        16.5110  -16.4780   -8.5970 C.3     1  MOL1        0.0640
     28 C17        17.3050  -17.3490   -9.5510 C.3     1  MOL1        0.2720
     29 F18        18.3190  -16.6720  -10.2070 F       1  MOL1       -0.2040
     30 F19        16.5170  -18.1250  -10.3860 F       1  MOL1       -0.2040
     31 C20        17.7730  -18.0830   -8.3100 C.3     1  MOL1        0.0640
     32 O25        13.8530  -14.7220   -3.5520 O.3     1  MOL1       -0.4930
     33 C26        14.1610  -13.6380   -2.6820 C.3     1  MOL1        0.0780
@<TRIPOS>BOND
     1    13    12    2
     2    12     9    1
     3    12    11   am
     4    30    28    1
     5    10    11    1
     6    29    28    1
     7     9     8    1
     8    28    27    1
     9    28    31    1
    10     6     5    1
    11    27    26    1
    12     7     5   ar
    13     7     1   ar
    14    31    26    1
    15     8     1    1
    16     8    14    1
    17     5     4   ar
    18     1     2   ar
    19    14    15   am
    20    26    25    1
    21     4     3   ar
    22     2     3   ar
    23    15    16    2
    24    15    17    1
    25    25    20    1
    26    17    18    1
    27    18    19    1
    28    20    19   ar
    29    20    21   ar
    30    19    24   ar
    31    21    22   ar
    32    24    32    1
    33    24    23   ar
    34    32    33    1
    35    22    23   ar
