@<TRIPOS>MOLECULE
L3024_0_out.pdbqt
 33 35 0 0 0
SMALL
GASTEIGER

@<TRIPOS>ATOM
      1 C27         8.0780  -17.8400   -9.2720 C.ar    1  MOL1       -0.0240
      2 C28         7.9220  -17.1990  -10.5150 C.ar    1  MOL1       -0.0570
      3 C29         6.8610  -16.3120  -10.7250 C.ar    1  MOL1       -0.0610
      4 C30         5.9470  -16.0560   -9.6990 C.ar    1  MOL1       -0.0480
      5 C31         6.0920  -16.6850   -8.4570 C.ar    1  MOL1        0.0180
      6 Br32        4.8530  -16.3180   -7.0470 Br      1  MOL1       -0.0510
      7 C33         7.1490  -17.5770   -8.2450 C.ar    1  MOL1       -0.0430
      8  C6         9.1850  -18.8530   -9.0760 C.3     1  MOL1        0.0630
      9  C5         8.6160  -20.1440   -8.4600 C.3     1  MOL1        0.0510
     10  C1         5.8080  -21.9580  -10.4590 C.3     1  MOL1        0.0060
     11  N2         6.5060  -21.1530   -9.4660 N.am    1  MOL1       -0.3590
     12  C3         7.9270  -20.9890   -9.4920 C.2     1  MOL1        0.2220
     13  O4         8.6130  -21.5550  -10.3870 O.2     1  MOL1       -0.2750
     14  N7        10.2400  -18.2950   -8.2230 N.am    1  MOL1       -0.3460
     15  C8        11.5400  -17.9700   -8.7200 C.2     1  MOL1        0.2580
     16  O9        11.8250  -18.1680   -9.9310 O.2     1  MOL1       -0.2710
     17 C10        12.5730  -17.3770   -7.8100 C.3     1  MOL1        0.1670
     18 O11        13.5530  -16.6660   -8.5630 O.3     1  MOL1       -0.4800
     19 C12        14.8500  -16.4610   -8.0860 C.ar    1  MOL1        0.1660
     20 C13        15.8850  -17.3840   -8.3640 C.ar    1  MOL1        0.0120
     21 C21        17.1910  -17.0980   -7.9320 C.ar    1  MOL1       -0.0540
     22 C22        17.4570  -15.9440   -7.1960 C.ar    1  MOL1       -0.0580
     23 C23        16.4250  -15.0600   -6.8800 C.ar    1  MOL1       -0.0160
     24 C24        15.1120  -15.3140   -7.3190 C.ar    1  MOL1        0.1610
     25 C14        15.6240  -18.6720   -9.1120 C.3     1  MOL1        0.0280
     26 N15        15.9470  -19.8370   -8.2630 N.3     1  MOL1       -0.2870
     27 C16        15.3880  -21.0820   -8.8160 C.3     1  MOL1        0.0640
     28 C17        14.4330  -21.2570   -7.6520 C.3     1  MOL1        0.2720
     29 F18        14.7150  -22.3570   -6.8620 F       1  MOL1       -0.2040
     30 F19        13.0980  -21.1460   -8.0050 F       1  MOL1       -0.2040
     31 C20        15.0240  -19.9650   -7.1220 C.3     1  MOL1        0.0640
     32 O25        14.0470  -14.4520   -7.0220 O.3     1  MOL1       -0.4930
     33 C26        13.4650  -14.3060   -5.7310 C.3     1  MOL1        0.0780
@<TRIPOS>BOND
     1     3     2   ar
     2     3     4   ar
     3     2     1   ar
     4    10    11    1
     5    13    12    2
     6    16    15    2
     7     4     5   ar
     8    12    11   am
     9    12     9    1
    10     1     8    1
    11     1     7   ar
    12    25    20    1
    13    25    26    1
    14     8     9    1
    15     8    14    1
    16    27    26    1
    17    27    28    1
    18    15    14   am
    19    15    17    1
    20    18    19    1
    21    18    17    1
    22     5     7   ar
    23     5     6    1
    24    20    19   ar
    25    20    21   ar
    26    26    31    1
    27    19    24   ar
    28    30    28    1
    29    21    22   ar
    30    28    31    1
    31    28    29    1
    32    24    32    1
    33    24    23   ar
    34    22    23   ar
    35    32    33    1
