@<TRIPOS>MOLECULE
L3024_0_out.pdbqt
 33 35 0 0 0
SMALL
GASTEIGER

@<TRIPOS>ATOM
      1 C27         9.8470  -19.3620   -8.4130 C.ar    1  MOL1       -0.0240
      2 C28         8.9000  -20.3360   -8.0490 C.ar    1  MOL1       -0.0570
      3 C29         7.5380  -20.1250   -8.2930 C.ar    1  MOL1       -0.0610
      4 C30         7.1100  -18.9420   -8.9010 C.ar    1  MOL1       -0.0480
      5 C31         8.0420  -17.9660   -9.2710 C.ar    1  MOL1        0.0180
      6 Br32        7.4570  -16.3570  -10.1230 Br      1  MOL1       -0.0510
      7 C33         9.4040  -18.1710   -9.0230 C.ar    1  MOL1       -0.0430
      8  C6        11.3090  -19.5660   -8.0800 C.3     1  MOL1        0.0630
      9  C5        11.4480  -20.4970   -6.8620 C.3     1  MOL1        0.0510
     10  C1        14.9580  -22.1690   -7.1020 C.3     1  MOL1        0.0060
     11  N2        13.8980  -21.1890   -6.9110 N.am    1  MOL1       -0.3590
     12  C3        12.5180  -21.5290   -7.0760 C.2     1  MOL1        0.2220
     13  O4        12.1890  -22.7020   -7.4010 O.2     1  MOL1       -0.2750
     14  N7        11.9560  -18.2760   -7.8190 N.am    1  MOL1       -0.3460
     15  C8        13.1460  -17.8620   -8.4940 C.2     1  MOL1        0.2580
     16  O9        13.6900  -18.6160   -9.3430 O.2     1  MOL1       -0.2710
     17 C10        13.7520  -16.5200   -8.2080 C.3     1  MOL1        0.1670
     18 O11        15.1680  -16.6280   -8.0860 O.3     1  MOL1       -0.4800
     19 C12        15.7690  -17.4280   -7.1100 C.ar    1  MOL1        0.1660
     20 C13        15.4630  -17.2630   -5.7390 C.ar    1  MOL1        0.0120
     21 C21        16.0300  -18.1410   -4.8010 C.ar    1  MOL1       -0.0540
     22 C22        16.9210  -19.1340   -5.2080 C.ar    1  MOL1       -0.0580
     23 C23        17.2600  -19.2620   -6.5550 C.ar    1  MOL1       -0.0160
     24 C24        16.6900  -18.4070   -7.5160 C.ar    1  MOL1        0.1610
     25 C14        14.5430  -16.1650   -5.2550 C.3     1  MOL1        0.0280
     26 N15        14.8070  -15.8600   -3.8340 N.3     1  MOL1       -0.2870
     27 C16        13.6700  -15.1630   -3.2090 C.3     1  MOL1        0.0640
     28 C17        14.4670  -13.8900   -3.0080 C.3     1  MOL1        0.2720
     29 F18        14.7020  -13.5850   -1.6780 F       1  MOL1       -0.2040
     30 F19        14.0060  -12.8190   -3.7560 F       1  MOL1       -0.2040
     31 C20        15.6100  -14.6370   -3.6670 C.3     1  MOL1        0.0640
     32 O25        17.0050  -18.5030   -8.8790 O.3     1  MOL1       -0.4930
     33 C26        17.5810  -19.6500   -9.4950 C.3     1  MOL1        0.0780
@<TRIPOS>BOND
     1     6     5    1
     2    33    32    1
     3    16    15    2
     4     5     7   ar
     5     5     4   ar
     6     7     1   ar
     7     4     3   ar
     8    32    24    1
     9    15    17    1
    10    15    14   am
    11     1     8    1
    12     1     2   ar
    13     3     2   ar
    14    17    18    1
    15    18    19    1
    16     8    14    1
    17     8     9    1
    18    24    19   ar
    19    24    23   ar
    20    13    12    2
    21    19    20   ar
    22    10    11    1
    23    12    11   am
    24    12     9    1
    25    23    22   ar
    26    20    25    1
    27    20    21   ar
    28    25    26    1
    29    22    21   ar
    30    26    31    1
    31    26    27    1
    32    30    28    1
    33    31    28    1
    34    27    28    1
    35    28    29    1
