@<TRIPOS>MOLECULE
L3024_0_out.pdbqt
 33 35 0 0 0
SMALL
GASTEIGER

@<TRIPOS>ATOM
      1 C27        14.6740  -18.2580   -7.1110 C.ar    1  MOL1       -0.0240
      2 C28        14.1430  -19.2890   -6.3140 C.ar    1  MOL1       -0.0570
      3 C29        14.9590  -19.9710   -5.4050 C.ar    1  MOL1       -0.0610
      4 C30        16.3090  -19.6320   -5.2830 C.ar    1  MOL1       -0.0480
      5 C31        16.8490  -18.6060   -6.0670 C.ar    1  MOL1        0.0180
      6 Br32       18.6920  -18.1280   -5.8830 Br      1  MOL1       -0.0510
      7 C33        16.0370  -17.9250   -6.9800 C.ar    1  MOL1       -0.0430
      8  C6        13.8030  -17.5740   -8.1430 C.3     1  MOL1        0.0630
      9  C5        13.8010  -16.0530   -7.9070 C.3     1  MOL1        0.0510
     10  C1        13.4400  -14.9480   -4.1890 C.3     1  MOL1        0.0060
     11  N2        14.0080  -15.3040   -5.4810 N.am    1  MOL1       -0.3590
     12  C3        13.1850  -15.7020   -6.5830 C.2     1  MOL1        0.2220
     13  O4        11.9320  -15.7570   -6.4490 O.2     1  MOL1       -0.2750
     14  N7        12.4370  -18.1070   -8.0880 N.am    1  MOL1       -0.3460
     15  C8        11.7650  -18.6200   -9.2410 C.2     1  MOL1        0.2580
     16  O9        12.3380  -18.6190  -10.3630 O.2     1  MOL1       -0.2710
     17 C10        10.3780  -19.1770   -9.1240 C.3     1  MOL1        0.1670
     18 O11        10.1030  -20.0620  -10.2080 O.3     1  MOL1       -0.4800
     19 C12         8.9050  -20.7740  -10.2970 C.ar    1  MOL1        0.1660
     20 C13         7.6960  -20.1310  -10.6490 C.ar    1  MOL1        0.0120
     21 C21         6.5300  -20.9000  -10.8040 C.ar    1  MOL1       -0.0540
     22 C22         6.5520  -22.2740  -10.5680 C.ar    1  MOL1       -0.0580
     23 C23         7.7350  -22.8990  -10.1730 C.ar    1  MOL1       -0.0160
     24 C24         8.9200  -22.1530  -10.0300 C.ar    1  MOL1        0.1610
     25 C14         7.6220  -18.6350  -10.8600 C.3     1  MOL1        0.0280
     26 N15         6.6600  -18.0270   -9.9180 N.3     1  MOL1       -0.2870
     27 C16         6.9390  -16.5970   -9.7060 C.3     1  MOL1        0.0640
     28 C17         7.3110  -16.8100   -8.2520 C.3     1  MOL1        0.2720
     29 F18         6.4260  -16.2260   -7.3610 F       1  MOL1       -0.2040
     30 F19         8.6420  -16.5490   -7.9730 F       1  MOL1       -0.2040
     31 C20         7.0260  -18.2760   -8.5130 C.3     1  MOL1        0.0640
     32 O25        10.1290  -22.7430   -9.6340 O.3     1  MOL1       -0.4930
     33 C26        10.3020  -24.1330   -9.3810 C.3     1  MOL1        0.0780
@<TRIPOS>BOND
     1    25    20    1
     2    25    26    1
     3    21    20   ar
     4    21    22   ar
     5    20    19   ar
     6    22    23   ar
     7    16    15    2
     8    19    18    1
     9    19    24   ar
    10    18    17    1
    11    23    24   ar
    12    24    32    1
    13    26    27    1
    14    26    31    1
    15    27    28    1
    16    32    33    1
    17    15    17    1
    18    15    14   am
    19    31    28    1
    20    28    30    1
    21    28    29    1
    22     8    14    1
    23     8     9    1
    24     8     1    1
    25     9    12    1
    26     1     7   ar
    27     1     2   ar
    28     7     5   ar
    29    12    13    2
    30    12    11   am
    31     2     3   ar
    32     5     6    1
    33     5     4   ar
    34    11    10    1
    35     3     4   ar
