@<TRIPOS>MOLECULE
L3024_0_out.pdbqt
 33 35 0 0 0
SMALL
GASTEIGER

@<TRIPOS>ATOM
      1 C27        15.0460  -17.9120    0.2670 C.ar    1  MOL1       -0.0240
      2 C28        13.7210  -17.8930    0.7370 C.ar    1  MOL1       -0.0570
      3 C29        13.0850  -19.0820    1.1090 C.ar    1  MOL1       -0.0610
      4 C30        13.7640  -20.3000    1.0150 C.ar    1  MOL1       -0.0480
      5 C31        15.0840  -20.3330    0.5520 C.ar    1  MOL1        0.0180
      6 Br32       16.0210  -21.9980    0.4440 Br      1  MOL1       -0.0510
      7 C33        15.7210  -19.1470    0.1740 C.ar    1  MOL1       -0.0430
      8  C6        15.7020  -16.6310   -0.2020 C.3     1  MOL1        0.0630
      9  C5        14.7770  -15.4330    0.0760 C.3     1  MOL1        0.0510
     10  C1        16.3450  -13.7660    3.2290 C.3     1  MOL1        0.0060
     11  N2        15.6960  -14.7220    2.3430 N.am    1  MOL1       -0.3590
     12  C3        15.4390  -14.4220    0.9670 C.2     1  MOL1        0.2220
     13  O4        15.7720  -13.3020    0.4910 O.2     1  MOL1       -0.2750
     14  N7        16.0200  -16.7170   -1.6320 N.am    1  MOL1       -0.3460
     15  C8        17.0620  -15.9470   -2.2350 C.2     1  MOL1        0.2580
     16  O9        17.7440  -15.1470   -1.5410 O.2     1  MOL1       -0.2710
     17 C10        17.3630  -16.0920   -3.6970 C.3     1  MOL1        0.1670
     18 O11        16.2200  -16.5810   -4.3950 O.3     1  MOL1       -0.4800
     19 C12        15.7210  -15.9450   -5.5350 C.ar    1  MOL1        0.1660
     20 C13        16.3340  -16.1180   -6.7970 C.ar    1  MOL1        0.0120
     21 C21        15.7520  -15.5240   -7.9290 C.ar    1  MOL1       -0.0540
     22 C22        14.6100  -14.7330   -7.8050 C.ar    1  MOL1       -0.0580
     23 C23        14.0350  -14.5230   -6.5520 C.ar    1  MOL1       -0.0160
     24 C24        14.5890  -15.1230   -5.4060 C.ar    1  MOL1        0.1610
     25 C14        17.6030  -16.9250   -6.9620 C.3     1  MOL1        0.0280
     26 N15        17.3110  -18.3700   -6.8720 N.3     1  MOL1       -0.2870
     27 C16        18.1900  -19.0410   -5.9000 C.3     1  MOL1        0.0640
     28 C17        18.8780  -19.8580   -6.9760 C.3     1  MOL1        0.2720
     29 F18        18.6260  -21.2170   -6.8880 F       1  MOL1       -0.2040
     30 F19        20.2170  -19.5450   -7.1440 F       1  MOL1       -0.2040
     31 C20        17.9640  -19.1370   -7.9470 C.3     1  MOL1        0.0640
     32 O25        14.0420  -14.9360   -4.1280 O.3     1  MOL1       -0.4930
     33 C26        14.2280  -13.7680   -3.3360 C.3     1  MOL1        0.0780
@<TRIPOS>BOND
     1    31    28    1
     2    31    26    1
     3    21    22   ar
     4    21    20   ar
     5    22    23   ar
     6    30    28    1
     7    28    29    1
     8    28    27    1
     9    25    26    1
    10    25    20    1
    11    26    27    1
    12    20    19   ar
    13    23    24   ar
    14    19    24   ar
    15    19    18    1
    16    24    32    1
    17    18    17    1
    18    32    33    1
    19    17    15    1
    20    15    14   am
    21    15    16    2
    22    14     8    1
    23     8     9    1
    24     8     1    1
    25     9    12    1
    26     7     1   ar
    27     7     5   ar
    28     1     2   ar
    29     6     5    1
    30    13    12    2
    31     5     4   ar
    32     2     3   ar
    33    12    11   am
    34     4     3   ar
    35    11    10    1
