@<TRIPOS>MOLECULE
L3024_0_out.pdbqt
 33 35 0 0 0
SMALL
GASTEIGER

@<TRIPOS>ATOM
      1 C27        16.4540  -17.8150   -6.4170 C.ar    1  MOL1       -0.0240
      2 C28        15.3770  -17.8030   -5.5120 C.ar    1  MOL1       -0.0570
      3 C29        15.4630  -17.0750   -4.3200 C.ar    1  MOL1       -0.0610
      4 C30        16.6220  -16.3550   -4.0200 C.ar    1  MOL1       -0.0480
      5 C31        17.6990  -16.3570   -4.9130 C.ar    1  MOL1        0.0180
      6 Br32       19.2780  -15.3530   -4.5120 Br      1  MOL1       -0.0510
      7 C33        17.6190  -17.0870   -6.1030 C.ar    1  MOL1       -0.0430
      8  C6        16.3810  -18.6630   -7.6690 C.3     1  MOL1        0.0630
      9  C5        17.6550  -18.4710   -8.5110 C.3     1  MOL1        0.0510
     10  C1        20.3160  -21.1930   -7.6830 C.3     1  MOL1        0.0060
     11  N2        19.5210  -19.9740   -7.6460 N.am    1  MOL1       -0.3590
     12  C3        18.4640  -19.7340   -8.5810 C.2     1  MOL1        0.2220
     13  O4        18.2020  -20.5870   -9.4730 O.2     1  MOL1       -0.2750
     14  N7        15.1890  -18.3140   -8.4500 N.am    1  MOL1       -0.3460
     15  C8        14.0670  -19.1910   -8.5750 C.2     1  MOL1        0.2580
     16  O9        14.0760  -20.3180   -8.0120 O.2     1  MOL1       -0.2710
     17 C10        12.8630  -18.7740   -9.3640 C.3     1  MOL1        0.1670
     18 O11        11.6670  -19.0890   -8.6540 O.3     1  MOL1       -0.4800
     19 C12        10.5400  -18.2640   -8.6970 C.ar    1  MOL1        0.1660
     20 C13         9.5040  -18.4890   -9.6320 C.ar    1  MOL1        0.0120
     21 C21         8.3540  -17.6840   -9.5870 C.ar    1  MOL1       -0.0540
     22 C22         8.2530  -16.6430   -8.6640 C.ar    1  MOL1       -0.0580
     23 C23         9.2980  -16.3910   -7.7750 C.ar    1  MOL1       -0.0160
     24 C24        10.4520  -17.1970   -7.7880 C.ar    1  MOL1        0.1610
     25 C14         9.6010  -19.5730  -10.6820 C.3     1  MOL1        0.0280
     26 N15         9.5010  -20.9080  -10.0570 N.3     1  MOL1       -0.2870
     27 C16         9.2180  -21.9540  -11.0540 C.3     1  MOL1        0.0640
     28 C17         7.8480  -22.2400  -10.4730 C.3     1  MOL1        0.2720
     29 F18         7.7380  -23.4970   -9.9030 F       1  MOL1       -0.2040
     30 F19         6.8030  -21.9160  -11.3220 F       1  MOL1       -0.2040
     31 C20         8.1710  -21.1490   -9.4720 C.3     1  MOL1        0.0640
     32 O25        11.5250  -16.9760   -6.9120 O.3     1  MOL1       -0.4930
     33 C26        12.0460  -15.6920   -6.5840 C.3     1  MOL1        0.0780
@<TRIPOS>BOND
     1    30    28    1
     2    27    28    1
     3    27    26    1
     4    25    26    1
     5    25    20    1
     6    28    29    1
     7    28    31    1
     8    26    31    1
     9    20    21   ar
    10    20    19   ar
    11    21    22   ar
    12    13    12    2
    13    17    18    1
    14    17    15    1
    15    19    18    1
    16    19    24   ar
    17    22    23   ar
    18    12     9    1
    19    12    11   am
    20    15    14   am
    21    15    16    2
    22     9     8    1
    23    14     8    1
    24    24    23   ar
    25    24    32    1
    26    10    11    1
    27     8     1    1
    28    32    33    1
    29     1     7   ar
    30     1     2   ar
    31     7     5   ar
    32     2     3   ar
    33     5     6    1
    34     5     4   ar
    35     3     4   ar
