@<TRIPOS>MOLECULE
L3024_0_out.pdbqt
 33 35 0 0 0
SMALL
GASTEIGER

@<TRIPOS>ATOM
      1 C27         5.5890  -21.3310   -9.1140 C.ar    1  MOL1       -0.0240
      2 C28         5.5240  -21.2520   -7.7110 C.ar    1  MOL1       -0.0570
      3 C29         4.3490  -21.6010   -7.0360 C.ar    1  MOL1       -0.0610
      4 C30         3.2300  -22.0320   -7.7540 C.ar    1  MOL1       -0.0480
      5 C31         3.2830  -22.1190   -9.1500 C.ar    1  MOL1        0.0180
      6 Br32        1.7580  -22.7300  -10.1300 Br      1  MOL1       -0.0510
      7 C33         4.4540  -21.7650   -9.8280 C.ar    1  MOL1       -0.0430
      8  C6         6.8390  -20.8820   -9.8400 C.3     1  MOL1        0.0630
      9  C5         8.0350  -20.8630   -8.8710 C.3     1  MOL1        0.0510
     10  C1         9.9410  -23.6140  -10.8650 C.3     1  MOL1        0.0060
     11  N2         8.8980  -22.7140  -10.3930 N.am    1  MOL1       -0.3590
     12  C3         9.1280  -21.7860   -9.3280 C.2     1  MOL1        0.2220
     13  O4        10.2560  -21.7350   -8.7650 O.2     1  MOL1       -0.2750
     14  N7         6.6340  -19.5550  -10.4320 N.am    1  MOL1       -0.3460
     15  C8         7.6630  -18.8610  -11.1400 C.2     1  MOL1        0.2580
     16  O9         8.8050  -19.3780  -11.2680 O.2     1  MOL1       -0.2710
     17 C10         7.3920  -17.5180  -11.7480 C.3     1  MOL1        0.1670
     18 O11         7.5700  -16.4870  -10.7800 O.3     1  MOL1       -0.4800
     19 C12         6.6300  -16.2420   -9.7750 C.ar    1  MOL1        0.1660
     20 C13         5.4520  -15.5060  -10.0400 C.ar    1  MOL1        0.0120
     21 C21         4.4970  -15.3530   -9.0210 C.ar    1  MOL1       -0.0540
     22 C22         4.7270  -15.8780   -7.7490 C.ar    1  MOL1       -0.0580
     23 C23         5.9130  -16.5600   -7.4770 C.ar    1  MOL1       -0.0160
     24 C24         6.8760  -16.7440   -8.4870 C.ar    1  MOL1        0.1610
     25 C14         5.1920  -14.8770  -11.3900 C.3     1  MOL1        0.0280
     26 N15         4.0130  -13.9890  -11.3280 N.3     1  MOL1       -0.2870
     27 C16         3.2320  -14.0360  -12.5750 C.3     1  MOL1        0.0640
     28 C17         3.5510  -12.5940  -12.9150 C.3     1  MOL1        0.2720
     29 F18         2.4480  -11.7580  -12.8790 F       1  MOL1       -0.2040
     30 F19         4.3290  -12.4480  -14.0520 F       1  MOL1       -0.2040
     31 C20         4.3550  -12.5890  -11.6300 C.3     1  MOL1        0.0640
     32 O25         8.0800  -17.4230   -8.2540 O.3     1  MOL1       -0.4930
     33 C26         9.3450  -16.7890   -8.0970 C.3     1  MOL1        0.0780
@<TRIPOS>BOND
     1    30    28    1
     2    28    29    1
     3    28    27    1
     4    28    31    1
     5    27    26    1
     6    17    15    1
     7    17    18    1
     8    31    26    1
     9    25    26    1
    10    25    20    1
    11    16    15    2
    12    15    14   am
    13    10    11    1
    14    18    19    1
    15    14     8    1
    16    11    12   am
    17     6     5    1
    18    20    19   ar
    19    20    21   ar
    20     8     1    1
    21     8     9    1
    22     7     5   ar
    23     7     1   ar
    24    19    24   ar
    25    12     9    1
    26    12    13    2
    27     5     4   ar
    28     1     2   ar
    29    21    22   ar
    30    24    32    1
    31    24    23   ar
    32    32    33    1
    33     4     3   ar
    34    22    23   ar
    35     2     3   ar
