@<TRIPOS>MOLECULE
L3024_0_out.pdbqt
 33 35 0 0 0
SMALL
GASTEIGER

@<TRIPOS>ATOM
      1 C27         8.5350  -18.4510   -9.2800 C.ar    1  MOL1       -0.0240
      2 C28         8.3900  -17.3150   -8.4640 C.ar    1  MOL1       -0.0570
      3 C29         7.8090  -16.1480   -8.9720 C.ar    1  MOL1       -0.0610
      4 C30         7.3680  -16.1040  -10.2980 C.ar    1  MOL1       -0.0480
      5 C31         7.5040  -17.2290  -11.1190 C.ar    1  MOL1        0.0180
      6 Br32        6.8800  -17.1750  -12.9270 Br      1  MOL1       -0.0510
      7 C33         8.0890  -18.3950  -10.6160 C.ar    1  MOL1       -0.0430
      8  C6         9.2310  -19.6840   -8.7450 C.3     1  MOL1        0.0630
      9  C5         8.2600  -20.4990   -7.8700 C.3     1  MOL1        0.0510
     10  C1         4.8920  -21.6260   -9.4700 C.3     1  MOL1        0.0060
     11  N2         5.8770  -20.9190   -8.6640 N.am    1  MOL1       -0.3590
     12  C3         7.2680  -21.2540   -8.7060 C.2     1  MOL1        0.2220
     13  O4         7.6710  -22.1890   -9.4520 O.2     1  MOL1       -0.2750
     14  N7        10.4210  -19.3040   -7.9770 N.am    1  MOL1       -0.3460
     15  C8        11.6820  -19.0360   -8.5950 C.2     1  MOL1        0.2580
     16  O9        11.8090  -19.1320   -9.8450 O.2     1  MOL1       -0.2710
     17 C10        12.8610  -18.6250   -7.7660 C.3     1  MOL1        0.1670
     18 O11        13.8730  -18.0500   -8.5890 O.3     1  MOL1       -0.4800
     19 C12        15.2240  -18.0770   -8.2300 C.ar    1  MOL1        0.1660
     20 C13        15.8740  -16.9200   -7.7430 C.ar    1  MOL1        0.0120
     21 C21        17.2110  -17.0120   -7.3200 C.ar    1  MOL1       -0.0540
     22 C22        17.9050  -18.2170   -7.4240 C.ar    1  MOL1       -0.0580
     23 C23        17.2760  -19.3450   -7.9520 C.ar    1  MOL1       -0.0160
     24 C24        15.9320  -19.2820   -8.3640 C.ar    1  MOL1        0.1610
     25 C14        15.1700  -15.5830   -7.6660 C.3     1  MOL1        0.0280
     26 N15        15.0600  -15.1390   -6.2610 N.3     1  MOL1       -0.2870
     27 C16        14.3690  -16.1390   -5.4300 C.3     1  MOL1        0.0640
     28 C17        13.1860  -15.2240   -5.1830 C.3     1  MOL1        0.2720
     29 F18        13.0620  -14.8190   -3.8650 F       1  MOL1       -0.2040
     30 F19        12.0030  -15.6770   -5.7440 F       1  MOL1       -0.2040
     31 C20        13.9220  -14.2260   -6.0550 C.3     1  MOL1        0.0640
     32 O25        15.2640  -20.3920   -8.9000 O.3     1  MOL1       -0.4930
     33 C26        15.7470  -21.7300   -8.8390 C.3     1  MOL1        0.0780
@<TRIPOS>BOND
     1     6     5    1
     2     5     7   ar
     3     5     4   ar
     4     7     1   ar
     5     4     3   ar
     6    16    15    2
     7    10    11    1
     8    13    12    2
     9     1     8    1
    10     1     2   ar
    11     3     2   ar
    12    32    33    1
    13    32    24    1
    14     8    14    1
    15     8     9    1
    16    12    11   am
    17    12     9    1
    18    15    14   am
    19    15    17    1
    20    18    19    1
    21    18    17    1
    22    24    19   ar
    23    24    23   ar
    24    19    20   ar
    25    23    22   ar
    26    20    25    1
    27    20    21   ar
    28    25    26    1
    29    22    21   ar
    30    26    31    1
    31    26    27    1
    32    31    28    1
    33    30    28    1
    34    27    28    1
    35    28    29    1
