@<TRIPOS>MOLECULE
L3024_0_out.pdbqt
 33 35 0 0 0
SMALL
GASTEIGER

@<TRIPOS>ATOM
      1 C27        15.6060  -17.4520   -8.1320 C.ar    1  MOL1       -0.0240
      2 C28        16.4280  -16.4310   -8.6440 C.ar    1  MOL1       -0.0570
      3 C29        17.5750  -16.7480   -9.3790 C.ar    1  MOL1       -0.0610
      4 C30        17.9140  -18.0840   -9.6080 C.ar    1  MOL1       -0.0480
      5 C31        17.1040  -19.1090   -9.1070 C.ar    1  MOL1        0.0180
      6 Br32       17.5570  -20.9380   -9.4400 Br      1  MOL1       -0.0510
      7 C33        15.9590  -18.7960   -8.3680 C.ar    1  MOL1       -0.0430
      8  C6        14.4070  -17.1020   -7.2780 C.3     1  MOL1        0.0630
      9  C5        14.8530  -16.8260   -5.8300 C.3     1  MOL1        0.0510
     10  C1        14.2000  -13.7480   -3.5340 C.3     1  MOL1        0.0060
     11  N2        14.6010  -15.0650   -4.0080 N.am    1  MOL1       -0.3590
     12  C3        14.4200  -15.4640   -5.3710 C.2     1  MOL1        0.2220
     13  O4        13.8960  -14.6690   -6.1980 O.2     1  MOL1       -0.2750
     14  N7        13.4210  -18.1870   -7.3160 N.am    1  MOL1       -0.3460
     15  C8        12.0150  -17.9460   -7.4020 C.2     1  MOL1        0.2580
     16  O9        11.5740  -16.7670   -7.4370 O.2     1  MOL1       -0.2710
     17 C10        11.0520  -19.0930   -7.4650 C.3     1  MOL1        0.1670
     18 O11        11.1320  -19.7440   -8.7310 O.3     1  MOL1       -0.4800
     19 C12        10.2340  -20.7450   -9.1090 C.ar    1  MOL1        0.1660
     20 C13         8.9600  -20.4250   -9.6320 C.ar    1  MOL1        0.0120
     21 C21         8.1200  -21.4620  -10.0720 C.ar    1  MOL1       -0.0540
     22 C22         8.5160  -22.7940   -9.9510 C.ar    1  MOL1       -0.0580
     23 C23         9.7520  -23.1090   -9.3880 C.ar    1  MOL1       -0.0160
     24 C24        10.6190  -22.0870   -8.9580 C.ar    1  MOL1        0.1610
     25 C14         8.4750  -18.9960   -9.7300 C.3     1  MOL1        0.0280
     26 N15         7.8840  -18.5630   -8.4470 N.3     1  MOL1       -0.2870
     27 C16         6.4140  -18.5030   -8.5200 C.3     1  MOL1        0.0640
     28 C17         6.3940  -16.9970   -8.3490 C.3     1  MOL1        0.2720
     29 F18         5.8230  -16.5810   -7.1590 F       1  MOL1       -0.2040
     30 F19         5.9300  -16.3160   -9.4620 F       1  MOL1       -0.2040
     31 C20         7.9050  -17.0980   -8.2920 C.3     1  MOL1        0.0640
     32 O25        11.8700  -22.3620   -8.3860 O.3     1  MOL1       -0.4930
     33 C26        12.1400  -22.3320   -6.9880 C.3     1  MOL1        0.0780
@<TRIPOS>BOND
     1    21    22   ar
     2    21    20   ar
     3    22    23   ar
     4    25    20    1
     5    25    26    1
     6    20    19   ar
     7     4     3   ar
     8     4     5   ar
     9    30    28    1
    10     6     5    1
    11    23    24   ar
    12     3     2   ar
    13    19    24   ar
    14    19    18    1
    15     5     7   ar
    16    24    32    1
    17    18    17    1
    18     2     1   ar
    19    27    26    1
    20    27    28    1
    21    26    31    1
    22    32    33    1
    23     7     1   ar
    24    28    31    1
    25    28    29    1
    26     1     8    1
    27    17    15    1
    28    16    15    2
    29    15    14   am
    30    14     8    1
    31     8     9    1
    32    13    12    2
    33     9    12    1
    34    12    11   am
    35    11    10    1
