@<TRIPOS>MOLECULE
L3024_0_out.pdbqt
 33 35 0 0 0
SMALL
GASTEIGER

@<TRIPOS>ATOM
      1 C27        18.1920  -17.6940  -11.5660 C.ar    1  MOL1       -0.0240
      2 C28        18.7300  -16.3940  -11.5840 C.ar    1  MOL1       -0.0570
      3 C29        18.7100  -15.6360  -12.7600 C.ar    1  MOL1       -0.0610
      4 C30        18.1560  -16.1670  -13.9280 C.ar    1  MOL1       -0.0480
      5 C31        17.6140  -17.4580  -13.9230 C.ar    1  MOL1        0.0180
      6 Br32       16.8350  -18.1760  -15.5160 Br      1  MOL1       -0.0510
      7 C33        17.6370  -18.2200  -12.7500 C.ar    1  MOL1       -0.0430
      8  C6        18.2820  -18.5340  -10.3110 C.3     1  MOL1        0.0630
      9  C5        19.0430  -19.8400  -10.6030 C.3     1  MOL1        0.0510
     10  C1        20.1170  -22.5190   -7.9880 C.3     1  MOL1        0.0060
     11  N2        19.6000  -21.8860   -9.1930 N.am    1  MOL1       -0.3590
     12  C3        19.5720  -20.4630   -9.3440 C.2     1  MOL1        0.2220
     13  O4        19.9960  -19.7200   -8.4170 O.2     1  MOL1       -0.2750
     14  N7        16.9400  -18.8220   -9.7940 N.am    1  MOL1       -0.3460
     15  C8        16.4980  -18.3790   -8.5090 C.2     1  MOL1        0.2580
     16  O9        17.2720  -17.7220   -7.7640 O.2     1  MOL1       -0.2710
     17 C10        15.1060  -18.6790   -8.0410 C.3     1  MOL1        0.1670
     18 O11        14.1690  -17.8090   -8.6710 O.3     1  MOL1       -0.4800
     19 C12        13.1240  -17.2080   -7.9650 C.ar    1  MOL1        0.1660
     20 C13        11.7980  -17.6840   -8.0750 C.ar    1  MOL1        0.0120
     21 C21        10.7920  -17.1010   -7.2870 C.ar    1  MOL1       -0.0540
     22 C22        11.0860  -16.0330   -6.4400 C.ar    1  MOL1       -0.0580
     23 C23        12.3860  -15.5320   -6.3700 C.ar    1  MOL1       -0.0160
     24 C24        13.4140  -16.1120   -7.1350 C.ar    1  MOL1        0.1610
     25 C14        11.4300  -18.8050   -9.0220 C.3     1  MOL1        0.0280
     26 N15        10.0370  -18.6510   -9.4890 N.3     1  MOL1       -0.2870
     27 C16         9.2280  -19.8430   -9.1810 C.3     1  MOL1        0.0640
     28 C17         9.0460  -20.1870  -10.6460 C.3     1  MOL1        0.2720
     29 F18         7.7400  -20.0660  -11.0870 F       1  MOL1       -0.2040
     30 F19         9.6570  -21.3730  -11.0200 F       1  MOL1       -0.2040
     31 C20         9.8930  -18.9610  -10.9220 C.3     1  MOL1        0.0640
     32 O25        14.7330  -15.6380   -7.0940 O.3     1  MOL1       -0.4930
     33 C26        15.1890  -14.4660   -7.7630 C.3     1  MOL1        0.0780
@<TRIPOS>BOND
     1     6     5    1
     2     4     5   ar
     3     4     3   ar
     4     5     7   ar
     5     3     2   ar
     6     7     1   ar
     7     2     1   ar
     8     1     8    1
     9    29    28    1
    10    30    28    1
    11    31    28    1
    12    31    26    1
    13    28    27    1
    14     9     8    1
    15     9    12    1
    16     8    14    1
    17    14    15   am
    18    26    27    1
    19    26    25    1
    20    12    11   am
    21    12    13    2
    22    11    10    1
    23    25    20    1
    24    18    17    1
    25    18    19    1
    26    15    17    1
    27    15    16    2
    28    20    19   ar
    29    20    21   ar
    30    19    24   ar
    31    33    32    1
    32    21    22   ar
    33    24    32    1
    34    24    23   ar
    35    22    23   ar
