@<TRIPOS>MOLECULE
L3024_0_out.pdbqt
 33 35 0 0 0
SMALL
GASTEIGER

@<TRIPOS>ATOM
      1 C27        15.7180  -17.8610   -3.2970 C.ar    1  MOL1       -0.0240
      2 C28        15.7880  -19.2530   -3.1070 C.ar    1  MOL1       -0.0570
      3 C29        15.3810  -19.8230   -1.8950 C.ar    1  MOL1       -0.0610
      4 C30        14.9020  -19.0110   -0.8640 C.ar    1  MOL1       -0.0480
      5 C31        14.8250  -17.6250   -1.0410 C.ar    1  MOL1        0.0180
      6 Br32       14.1490  -16.5160    0.3630 Br      1  MOL1       -0.0510
      7 C33        15.2360  -17.0510   -2.2490 C.ar    1  MOL1       -0.0430
      8  C6        16.2280  -17.2460   -4.5820 C.3     1  MOL1        0.0630
      9  C5        16.4080  -15.7280   -4.4050 C.3     1  MOL1        0.0510
     10  C1        20.2400  -15.0330   -4.4640 C.3     1  MOL1        0.0060
     11  N2        18.9130  -15.4520   -4.0370 N.am    1  MOL1       -0.3590
     12  C3        17.7620  -15.2760   -4.8700 C.2     1  MOL1        0.2220
     13  O4        17.8800  -14.7410   -6.0070 O.2     1  MOL1       -0.2750
     14  N7        15.3030  -17.5320   -5.6840 N.am    1  MOL1       -0.3460
     15  C8        15.7510  -17.8210   -7.0100 C.2     1  MOL1        0.2580
     16  O9        16.9820  -17.8300   -7.2760 O.2     1  MOL1       -0.2710
     17 C10        14.7630  -18.1320   -8.0940 C.3     1  MOL1        0.1670
     18 O11        14.8180  -19.5150   -8.4380 O.3     1  MOL1       -0.4800
     19 C12        14.1670  -20.4930   -7.6820 C.ar    1  MOL1        0.1660
     20 C13        12.7660  -20.6690   -7.7640 C.ar    1  MOL1        0.0120
     21 C21        12.1640  -21.7160   -7.0470 C.ar    1  MOL1       -0.0540
     22 C22        12.9290  -22.5440   -6.2250 C.ar    1  MOL1       -0.0580
     23 C23        14.3030  -22.3370   -6.1070 C.ar    1  MOL1       -0.0160
     24 C24        14.9320  -21.3070   -6.8310 C.ar    1  MOL1        0.1610
     25 C14        11.8970  -19.7580   -8.6020 C.3     1  MOL1        0.0280
     26 N15        11.1790  -18.7950   -7.7420 N.3     1  MOL1       -0.2870
     27 C16         9.7200  -18.8890   -7.9230 C.3     1  MOL1        0.0640
     28 C17         9.6320  -17.5010   -8.5250 C.3     1  MOL1        0.2720
     29 F18         8.9430  -16.5960   -7.7350 F       1  MOL1       -0.2040
     30 F19         9.2450  -17.4930   -9.8550 F       1  MOL1       -0.2040
     31 C20        11.1350  -17.4470   -8.3340 C.3     1  MOL1        0.0640
     32 O25        16.3110  -21.0650   -6.7390 O.3     1  MOL1       -0.4930
     33 C26        17.2660  -21.4660   -7.7160 C.3     1  MOL1        0.0780
@<TRIPOS>BOND
     1    30    28    1
     2    25    20    1
     3    25    26    1
     4    28    31    1
     5    28    27    1
     6    28    29    1
     7    18    17    1
     8    18    19    1
     9    31    26    1
    10    17    15    1
    11    27    26    1
    12    20    19   ar
    13    20    21   ar
    14    33    32    1
    15    19    24   ar
    16    16    15    2
    17    21    22   ar
    18    15    14   am
    19    24    32    1
    20    24    23   ar
    21    22    23   ar
    22    13    12    2
    23    14     8    1
    24    12     9    1
    25    12    11   am
    26     8     9    1
    27     8     1    1
    28    10    11    1
    29     1     2   ar
    30     1     7   ar
    31     2     3   ar
    32     7     5   ar
    33     3     4   ar
    34     5     4   ar
    35     5     6    1
