@<TRIPOS>MOLECULE
L3024_0_out.pdbqt
 33 35 0 0 0
SMALL
GASTEIGER

@<TRIPOS>ATOM
      1 C27         5.0150  -14.6850  -11.0920 C.ar    1  MOL1       -0.0240
      2 C28         4.1070  -14.8220  -10.0270 C.ar    1  MOL1       -0.0570
      3 C29         3.0270  -13.9420   -9.9010 C.ar    1  MOL1       -0.0610
      4 C30         2.8430  -12.9190  -10.8340 C.ar    1  MOL1       -0.0480
      5 C31         3.7370  -12.7740  -11.9010 C.ar    1  MOL1        0.0180
      6 Br32        3.4720  -11.3860  -13.1910 Br      1  MOL1       -0.0510
      7 C33         4.8210  -13.6480  -12.0270 C.ar    1  MOL1       -0.0430
      8  C6         6.2220  -15.5950  -11.1810 C.3     1  MOL1        0.0630
      9  C5         6.3060  -16.2230  -12.5840 C.3     1  MOL1        0.0510
     10  C1         7.5810  -19.8190  -11.7980 C.3     1  MOL1        0.0060
     11  N2         6.7800  -18.6030  -11.8120 N.am    1  MOL1       -0.3590
     12  C3         7.1600  -17.4580  -12.5830 C.2     1  MOL1        0.2220
     13  O4         8.2160  -17.4820  -13.2720 O.2     1  MOL1       -0.2750
     14  N7         6.1490  -16.6370  -10.1520 N.am    1  MOL1       -0.3460
     15  C8         7.2070  -16.8760   -9.2220 C.2     1  MOL1        0.2580
     16  O9         8.2610  -16.1870   -9.2690 O.2     1  MOL1       -0.2710
     17 C10         7.0700  -17.9370   -8.1720 C.3     1  MOL1        0.1670
     18 O11         8.2900  -18.6620   -8.0330 O.3     1  MOL1       -0.4800
     19 C12         8.4270  -19.9770   -8.4830 C.ar    1  MOL1        0.1660
     20 C13         7.3230  -20.8600   -8.5100 C.ar    1  MOL1        0.0120
     21 C21         7.4880  -22.1480   -9.0450 C.ar    1  MOL1       -0.0540
     22 C22         8.7370  -22.5710   -9.5000 C.ar    1  MOL1       -0.0580
     23 C23         9.8360  -21.7160   -9.4270 C.ar    1  MOL1       -0.0160
     24 C24         9.6910  -20.4130   -8.9140 C.ar    1  MOL1        0.1610
     25 C14         5.9670  -20.4550   -7.9750 C.3     1  MOL1        0.0280
     26 N15         5.0720  -21.6280   -7.8980 N.3     1  MOL1       -0.2870
     27 C16         3.9450  -21.5120   -8.8380 C.3     1  MOL1        0.0640
     28 C17         2.9260  -21.4150   -7.7200 C.3     1  MOL1        0.2720
     29 F18         2.0700  -22.5000   -7.6520 F       1  MOL1       -0.2040
     30 F19         2.2850  -20.1890   -7.6550 F       1  MOL1       -0.2040
     31 C20         4.1140  -21.5240   -6.7840 C.3     1  MOL1        0.0640
     32 O25        10.7710  -19.5230   -8.8220 O.3     1  MOL1       -0.4930
     33 C26        11.0570  -18.5040   -9.7730 C.3     1  MOL1        0.0780
@<TRIPOS>BOND
     1    13    12    2
     2     6     5    1
     3     9    12    1
     4     9     8    1
     5    12    11   am
     6     7     5   ar
     7     7     1   ar
     8     5     4   ar
     9    11    10    1
    10     8     1    1
    11     8    14    1
    12     1     2   ar
    13     4     3   ar
    14    14    15   am
    15     2     3   ar
    16    33    32    1
    17    22    23   ar
    18    22    21   ar
    19    23    24   ar
    20    16    15    2
    21    15    17    1
    22    21    20   ar
    23    24    32    1
    24    24    19   ar
    25    27    26    1
    26    27    28    1
    27    20    19   ar
    28    20    25    1
    29    19    18    1
    30    17    18    1
    31    25    26    1
    32    26    31    1
    33    28    30    1
    34    28    29    1
    35    28    31    1
