@<TRIPOS>MOLECULE
L3024_0_out.pdbqt
 33 35 0 0 0
SMALL
GASTEIGER

@<TRIPOS>ATOM
      1 C27        17.0730  -18.7650   -4.2770 C.ar    1  MOL1       -0.0240
      2 C28        17.5140  -17.4320   -4.1870 C.ar    1  MOL1       -0.0570
      3 C29        17.1930  -16.6550   -3.0690 C.ar    1  MOL1       -0.0610
      4 C30        16.4300  -17.1990   -2.0320 C.ar    1  MOL1       -0.0480
      5 C31        15.9880  -18.5250   -2.1080 C.ar    1  MOL1        0.0180
      6 Br32       14.9620  -19.2760   -0.6780 Br      1  MOL1       -0.0510
      7 C33        16.3020  -19.3030   -3.2270 C.ar    1  MOL1       -0.0430
      8  C6        17.3620  -19.5760   -5.5220 C.3     1  MOL1        0.0630
      9  C5        18.7900  -19.2870   -6.0190 C.3     1  MOL1        0.0510
     10  C1        19.6520  -20.2010   -9.7060 C.3     1  MOL1        0.0060
     11  N2        19.3210  -19.4490   -8.5050 N.am    1  MOL1       -0.3590
     12  C3        19.1210  -20.0930   -7.2420 C.2     1  MOL1        0.2220
     13  O4        19.2250  -21.3460   -7.1480 O.2     1  MOL1       -0.2750
     14  N7        16.3800  -19.2710   -6.5680 N.am    1  MOL1       -0.3460
     15  C8        15.1730  -20.0190   -6.7320 C.2     1  MOL1        0.2580
     16  O9        14.9200  -20.9910   -5.9710 O.2     1  MOL1       -0.2710
     17 C10        14.1900  -19.6470   -7.8010 C.3     1  MOL1        0.1670
     18 O11        14.3640  -18.2860   -8.1870 O.3     1  MOL1       -0.4800
     19 C12        13.7540  -17.2360   -7.4960 C.ar    1  MOL1        0.1660
     20 C13        12.3510  -17.1940   -7.3200 C.ar    1  MOL1        0.0120
     21 C21        11.7880  -16.1610   -6.5510 C.ar    1  MOL1       -0.0540
     22 C22        12.5950  -15.1620   -6.0080 C.ar    1  MOL1       -0.0580
     23 C23        13.9730  -15.1780   -6.2250 C.ar    1  MOL1       -0.0160
     24 C24        14.5620  -16.2130   -6.9750 C.ar    1  MOL1        0.1610
     25 C14        11.4390  -18.2290   -7.9390 C.3     1  MOL1        0.0280
     26 N15        10.8960  -17.7380   -9.2220 N.3     1  MOL1       -0.2870
     27 C16         9.5240  -18.2220   -9.4500 C.3     1  MOL1        0.0640
     28 C17         9.9410  -19.0650  -10.6390 C.3     1  MOL1        0.2720
     29 F18         9.4200  -18.6240  -11.8430 F       1  MOL1       -0.2040
     30 F19         9.8020  -20.4280  -10.4330 F       1  MOL1       -0.2040
     31 C20        11.3420  -18.5540  -10.3640 C.3     1  MOL1        0.0640
     32 O25        15.9430  -16.2650   -7.2170 O.3     1  MOL1       -0.4930
     33 C26        16.8230  -15.1510   -7.1070 C.3     1  MOL1        0.0780
@<TRIPOS>BOND
     1    29    28    1
     2    28    30    1
     3    28    31    1
     4    28    27    1
     5    31    26    1
     6    10    11    1
     7    27    26    1
     8    26    25    1
     9    11    12   am
    10    18    17    1
    11    18    19    1
    12    25    20    1
    13    17    15    1
    14    19    20   ar
    15    19    24   ar
    16    20    21   ar
    17    12    13    2
    18    12     9    1
    19    32    33    1
    20    32    24    1
    21    24    23   ar
    22    15    14   am
    23    15    16    2
    24    14     8    1
    25    21    22   ar
    26    23    22   ar
    27     9     8    1
    28     8     1    1
    29     1     2   ar
    30     1     7   ar
    31     2     3   ar
    32     7     5   ar
    33     3     4   ar
    34     5     4   ar
    35     5     6    1
