@<TRIPOS>MOLECULE
L3024_0_out.pdbqt
 33 35 0 0 0
SMALL
GASTEIGER

@<TRIPOS>ATOM
      1 C27         7.2840  -20.3100   -8.7410 C.ar    1  MOL1       -0.0240
      2 C28         7.0560  -18.9250   -8.6550 C.ar    1  MOL1       -0.0570
      3 C29         5.8870  -18.4350   -8.0630 C.ar    1  MOL1       -0.0610
      4 C30         4.9350  -19.3210   -7.5520 C.ar    1  MOL1       -0.0480
      5 C31         5.1510  -20.7020   -7.6280 C.ar    1  MOL1        0.0180
      6 Br32        3.8570  -21.9140   -6.9090 Br      1  MOL1       -0.0510
      7 C33         6.3160  -21.1950   -8.2240 C.ar    1  MOL1       -0.0430
      8  C6         8.5160  -20.8330   -9.4470 C.3     1  MOL1        0.0630
      9  C5         8.5600  -22.3690   -9.3630 C.3     1  MOL1        0.0510
     10  C1        10.9010  -24.7880  -11.3240 C.3     1  MOL1        0.0060
     11  N2        10.0960  -24.1880  -10.2700 N.am    1  MOL1       -0.3590
     12  C3         9.3900  -22.9580  -10.4670 C.2     1  MOL1        0.2220
     13  O4         9.4600  -22.3590  -11.5750 O.2     1  MOL1       -0.2750
     14  N7         9.7260  -20.2490   -8.8580 N.am    1  MOL1       -0.3460
     15  C8        10.6490  -19.4640   -9.6160 C.2     1  MOL1        0.2580
     16  O9        10.4480  -19.2560  -10.8420 O.2     1  MOL1       -0.2710
     17 C10        11.8570  -18.8680   -8.9580 C.3     1  MOL1        0.1670
     18 O11        11.9660  -19.3220   -7.6110 O.3     1  MOL1       -0.4800
     19 C12        13.1520  -19.8600   -7.1030 C.ar    1  MOL1        0.1660
     20 C13        14.1630  -19.0290   -6.5700 C.ar    1  MOL1        0.0120
     21 C21        15.3030  -19.6170   -5.9990 C.ar    1  MOL1       -0.0540
     22 C22        15.4620  -21.0030   -6.0000 C.ar    1  MOL1       -0.0580
     23 C23        14.4860  -21.8190   -6.5730 C.ar    1  MOL1       -0.0160
     24 C24        13.3250  -21.2540   -7.1330 C.ar    1  MOL1        0.1610
     25 C14        14.0510  -17.5210   -6.5980 C.3     1  MOL1        0.0280
     26 N15        15.2570  -16.9250   -7.2090 N.3     1  MOL1       -0.2870
     27 C16        15.7440  -15.7720   -6.4330 C.3     1  MOL1        0.0640
     28 C17        15.4300  -14.7950   -7.5490 C.3     1  MOL1        0.2720
     29 F18        16.5530  -14.2170   -8.1140 F       1  MOL1       -0.2040
     30 F19        14.4310  -13.8900   -7.2320 F       1  MOL1       -0.2040
     31 C20        14.9260  -16.0060   -8.3110 C.3     1  MOL1        0.0640
     32 O25        12.3220  -22.0390   -7.7190 O.3     1  MOL1       -0.4930
     33 C26        12.1930  -23.4460   -7.5420 C.3     1  MOL1        0.0780
@<TRIPOS>BOND
     1    13    12    2
     2    10    11    1
     3    16    15    2
     4    12    11   am
     5    12     9    1
     6    15    17    1
     7    15    14   am
     8     8     9    1
     9     8    14    1
    10     8     1    1
    11    17    18    1
    12     1     2   ar
    13     1     7   ar
    14     2     3   ar
    15    31    28    1
    16    31    26    1
    17     7     5   ar
    18    29    28    1
    19     3     4   ar
    20    32    33    1
    21    32    24    1
    22     5     4   ar
    23     5     6    1
    24    18    19    1
    25    28    30    1
    26    28    27    1
    27    26    25    1
    28    26    27    1
    29    24    19   ar
    30    24    23   ar
    31    19    20   ar
    32    25    20    1
    33    23    22   ar
    34    20    21   ar
    35    22    21   ar
