@<TRIPOS>MOLECULE
L3024_0_out.pdbqt
 33 35 0 0 0
SMALL
GASTEIGER

@<TRIPOS>ATOM
      1 C27        15.4120  -19.6840   -4.4180 C.ar    1  MOL1       -0.0240
      2 C28        14.9500  -20.0480   -3.1410 C.ar    1  MOL1       -0.0570
      3 C29        15.2920  -19.2830   -2.0200 C.ar    1  MOL1       -0.0610
      4 C30        16.0970  -18.1500   -2.1640 C.ar    1  MOL1       -0.0480
      5 C31        16.5610  -17.7750   -3.4300 C.ar    1  MOL1        0.0180
      6 Br32       17.6450  -16.2110   -3.6280 Br      1  MOL1       -0.0510
      7 C33        16.2250  -18.5400   -4.5510 C.ar    1  MOL1       -0.0430
      8  C6        15.0980  -20.5570   -5.6140 C.3     1  MOL1        0.0630
      9  C5        16.2190  -20.4370   -6.6630 C.3     1  MOL1        0.0510
     10  C1        16.0880  -23.0610   -9.5390 C.3     1  MOL1        0.0060
     11  N2        15.9210  -21.8360   -8.7700 N.am    1  MOL1       -0.3590
     12  C3        16.3980  -21.7180   -7.4260 C.2     1  MOL1        0.2220
     13  O4        16.9770  -22.6930   -6.8720 O.2     1  MOL1       -0.2750
     14  N7        13.8050  -20.1780   -6.1950 N.am    1  MOL1       -0.3460
     15  C8        12.8020  -21.1390   -6.5300 C.2     1  MOL1        0.2580
     16  O9        13.0100  -22.3670   -6.3410 O.2     1  MOL1       -0.2710
     17 C10        11.4870  -20.6950   -7.0970 C.3     1  MOL1        0.1670
     18 O11        11.6750  -19.6180   -8.0110 O.3     1  MOL1       -0.4800
     19 C12        10.6260  -18.7770   -8.3930 C.ar    1  MOL1        0.1660
     20 C13        10.4420  -17.5150   -7.7840 C.ar    1  MOL1        0.0120
     21 C21         9.4230  -16.6700   -8.2540 C.ar    1  MOL1       -0.0540
     22 C22         8.5710  -17.0880   -9.2760 C.ar    1  MOL1       -0.0580
     23 C23         8.7230  -18.3540   -9.8420 C.ar    1  MOL1       -0.0160
     24 C24         9.7500  -19.2100   -9.4010 C.ar    1  MOL1        0.1610
     25 C14        11.3120  -17.0490   -6.6370 C.3     1  MOL1        0.0280
     26 N15        12.4380  -16.2360   -7.1410 N.3     1  MOL1       -0.2870
     27 C16        13.7370  -16.8070   -6.7470 C.3     1  MOL1        0.0640
     28 C17        14.0680  -15.6270   -5.8560 C.3     1  MOL1        0.2720
     29 F18        15.1350  -14.8710   -6.3090 F       1  MOL1       -0.2040
     30 F19        14.1380  -15.9470   -4.5100 F       1  MOL1       -0.2040
     31 C20        12.7180  -15.0780   -6.2750 C.3     1  MOL1        0.0640
     32 O25         9.9360  -20.4910   -9.9430 O.3     1  MOL1       -0.4930
     33 C26         8.8790  -21.3720  -10.3070 C.3     1  MOL1        0.0780
@<TRIPOS>BOND
     1    33    32    1
     2    32    24    1
     3    23    24   ar
     4    23    22   ar
     5    10    11    1
     6    24    19   ar
     7    22    21   ar
     8    11    12   am
     9    19    18    1
    10    19    20   ar
    11    21    20   ar
    12    18    17    1
    13    20    25    1
    14    12    13    2
    15    12     9    1
    16    26    27    1
    17    26    25    1
    18    26    31    1
    19    17    15    1
    20    27    28    1
    21     9     8    1
    22    15    16    2
    23    15    14   am
    24    29    28    1
    25    31    28    1
    26    14     8    1
    27    28    30    1
    28     8     1    1
    29     7     1   ar
    30     7     5   ar
    31     1     2   ar
    32     6     5    1
    33     5     4   ar
    34     2     3   ar
    35     4     3   ar
