@<TRIPOS>MOLECULE
L3024_0_out.pdbqt
 33 35 0 0 0
SMALL
GASTEIGER

@<TRIPOS>ATOM
      1 C27        17.5000  -19.2160   -7.4960 C.ar    1  MOL1       -0.0240
      2 C28        18.2970  -20.0500   -6.6910 C.ar    1  MOL1       -0.0570
      3 C29        19.5720  -20.4370   -7.1170 C.ar    1  MOL1       -0.0610
      4 C30        20.0620  -19.9970   -8.3500 C.ar    1  MOL1       -0.0480
      5 C31        19.2810  -19.1650   -9.1590 C.ar    1  MOL1        0.0180
      6 Br32       19.9620  -18.5460  -10.8360 Br      1  MOL1       -0.0510
      7 C33        18.0040  -18.7800   -8.7380 C.ar    1  MOL1       -0.0430
      8  C6        16.0950  -18.8610   -7.0610 C.3     1  MOL1        0.0630
      9  C5        15.7650  -17.4150   -7.4710 C.3     1  MOL1        0.0510
     10  C1        12.4940  -15.5640   -6.4450 C.3     1  MOL1        0.0060
     11  N2        13.8990  -15.8950   -6.6360 N.am    1  MOL1       -0.3590
     12  C3        14.3080  -17.1070   -7.2800 C.2     1  MOL1        0.2220
     13  O4        13.4430  -17.9250   -7.6960 O.2     1  MOL1       -0.2750
     14  N7        15.9540  -19.0320   -5.6100 N.am    1  MOL1       -0.3460
     15  C8        14.9890  -19.9120   -5.0300 C.2     1  MOL1        0.2580
     16  O9        14.2090  -20.5730   -5.7650 O.2     1  MOL1       -0.2710
     17 C10        14.9050  -20.0690   -3.5410 C.3     1  MOL1        0.1670
     18 O11        15.7400  -19.1140   -2.8910 O.3     1  MOL1       -0.4800
     19 C12        15.2330  -18.1860   -1.9770 C.ar    1  MOL1        0.1660
     20 C13        15.0280  -16.8360   -2.3430 C.ar    1  MOL1        0.0120
     21 C21        14.4420  -15.9570   -1.4170 C.ar    1  MOL1       -0.0540
     22 C22        14.1120  -16.3950   -0.1340 C.ar    1  MOL1       -0.0580
     23 C23        14.3620  -17.7150    0.2410 C.ar    1  MOL1       -0.0160
     24 C24        14.9290  -18.6200   -0.6760 C.ar    1  MOL1        0.1610
     25 C14        15.4220  -16.3110   -3.7050 C.3     1  MOL1        0.0280
     26 N15        16.5340  -15.3460   -3.5840 N.3     1  MOL1       -0.2870
     27 C16        17.2610  -15.1940   -4.8560 C.3     1  MOL1        0.0640
     28 C17        18.5260  -15.8080   -4.2910 C.3     1  MOL1        0.2720
     29 F18        19.5800  -14.9160   -4.1930 F       1  MOL1       -0.2040
     30 F19        18.8670  -17.0180   -4.8740 F       1  MOL1       -0.2040
     31 C20        17.7410  -15.9590   -3.0030 C.3     1  MOL1        0.0640
     32 O25        15.1980  -19.9540   -0.3380 O.3     1  MOL1       -0.4930
     33 C26        15.9660  -20.3610    0.7900 C.3     1  MOL1        0.0780
@<TRIPOS>BOND
     1     6     5    1
     2     5     7   ar
     3     5     4   ar
     4     7     1   ar
     5     4     3   ar
     6    13    12    2
     7     1     8    1
     8     1     2   ar
     9     9    12    1
    10     9     8    1
    11    12    11   am
    12     3     2   ar
    13     8    14    1
    14    11    10    1
    15    16    15    2
    16    14    15   am
    17    15    17    1
    18    30    28    1
    19    27    28    1
    20    27    26    1
    21    28    29    1
    22    28    31    1
    23    25    26    1
    24    25    20    1
    25    26    31    1
    26    17    18    1
    27    18    19    1
    28    20    19   ar
    29    20    21   ar
    30    19    24   ar
    31    21    22   ar
    32    24    32    1
    33    24    23   ar
    34    32    33    1
    35    22    23   ar
