@<TRIPOS>MOLECULE
L3024_0_out.pdbqt
 33 35 0 0 0
SMALL
GASTEIGER

@<TRIPOS>ATOM
      1 C27         6.7820  -18.2030   -8.4340 C.ar    1  MOL1       -0.0240
      2 C28         6.1130  -19.4370   -8.3400 C.ar    1  MOL1       -0.0570
      3 C29         4.8860  -19.5280   -7.6740 C.ar    1  MOL1       -0.0610
      4 C30         4.3150  -18.3900   -7.0980 C.ar    1  MOL1       -0.0480
      5 C31         4.9680  -17.1560   -7.1880 C.ar    1  MOL1        0.0180
      6 Br32        4.1750  -15.5940   -6.4170 Br      1  MOL1       -0.0510
      7 C33         6.1980  -17.0620   -7.8470 C.ar    1  MOL1       -0.0430
      8  C6         8.1430  -18.1280   -9.0920 C.3     1  MOL1        0.0630
      9  C5         8.0380  -18.5440  -10.5700 C.3     1  MOL1        0.0510
     10  C1         9.2090  -22.2360  -10.9810 C.3     1  MOL1        0.0060
     11  N2         8.3990  -21.0620  -10.6900 N.am    1  MOL1       -0.3590
     12  C3         8.9020  -19.7340  -10.8700 C.2     1  MOL1        0.2220
     13  O4        10.0800  -19.5550  -11.2860 O.2     1  MOL1       -0.2750
     14  N7         9.0990  -18.9840   -8.3810 N.am    1  MOL1       -0.3460
     15  C8        10.2900  -18.4730   -7.7800 C.2     1  MOL1        0.2580
     16  O9        10.5630  -17.2450   -7.8550 O.2     1  MOL1       -0.2710
     17 C10        11.2200  -19.3880   -7.0420 C.3     1  MOL1        0.1670
     18 O11        12.4000  -19.6240   -7.8080 O.3     1  MOL1       -0.4800
     19 C12        13.6180  -19.9580   -7.2100 C.ar    1  MOL1        0.1660
     20 C13        14.4470  -18.9660   -6.6370 C.ar    1  MOL1        0.0120
     21 C21        15.6240  -19.3550   -5.9760 C.ar    1  MOL1       -0.0540
     22 C22        15.9970  -20.6980   -5.9270 C.ar    1  MOL1       -0.0580
     23 C23        15.2030  -21.6700   -6.5360 C.ar    1  MOL1       -0.0160
     24 C24        14.0090  -21.3060   -7.1860 C.ar    1  MOL1        0.1610
     25 C14        14.1020  -17.4960   -6.7180 C.3     1  MOL1        0.0280
     26 N15        15.3330  -16.6790   -6.7610 N.3     1  MOL1       -0.2870
     27 C16        15.0710  -15.2840   -6.3680 C.3     1  MOL1        0.0640
     28 C17        15.3910  -14.7570   -7.7530 C.3     1  MOL1        0.2720
     29 F18        16.5310  -13.9730   -7.7990 F       1  MOL1       -0.2040
     30 F19        14.3010  -14.2020   -8.4040 F       1  MOL1       -0.2040
     31 C20        15.6380  -16.2070   -8.1220 C.3     1  MOL1        0.0640
     32 O25        13.1830  -22.2520   -7.8120 O.3     1  MOL1       -0.4930
     33 C26        12.3370  -23.1650   -7.1210 C.3     1  MOL1        0.0780
@<TRIPOS>BOND
     1    13    12    2
     2    10    11    1
     3    12    11   am
     4    12     9    1
     5     9     8    1
     6     8     1    1
     7     8    14    1
     8     1     2   ar
     9     1     7   ar
    10    30    28    1
    11    14    15   am
    12     2     3   ar
    13    31    28    1
    14    31    26    1
    15    16    15    2
    16     7     5   ar
    17    32    24    1
    18    32    33    1
    19    18    19    1
    20    18    17    1
    21    29    28    1
    22    15    17    1
    23    28    27    1
    24     3     4   ar
    25    19    24   ar
    26    19    20   ar
    27     5     4   ar
    28     5     6    1
    29    24    23   ar
    30    26    25    1
    31    26    27    1
    32    25    20    1
    33    20    21   ar
    34    23    22   ar
    35    21    22   ar
