@<TRIPOS>MOLECULE
L3024_0_out.pdbqt
 33 35 0 0 0
SMALL
GASTEIGER

@<TRIPOS>ATOM
      1 C27        -0.2460  -22.3320   -9.7700 C.ar    1  MOL1       -0.0240
      2 C28        -0.7270  -23.6530   -9.7300 C.ar    1  MOL1       -0.0570
      3 C29        -1.4940  -24.1600  -10.7840 C.ar    1  MOL1       -0.0610
      4 C30        -1.7890  -23.3530  -11.8870 C.ar    1  MOL1       -0.0480
      5 C31        -1.3150  -22.0380  -11.9410 C.ar    1  MOL1        0.0180
      6 Br32       -1.7010  -20.9420  -13.4610 Br      1  MOL1       -0.0510
      7 C33        -0.5520  -21.5270  -10.8860 C.ar    1  MOL1       -0.0430
      8  C6         0.5220  -21.7690   -8.5940 C.3     1  MOL1        0.0630
      9  C5        -0.2310  -20.5640   -8.0010 C.3     1  MOL1        0.0510
     10  C1        -4.1070  -20.5480   -7.6120 C.3     1  MOL1        0.0060
     11  N2        -2.7520  -20.1990   -8.0140 N.am    1  MOL1       -0.3590
     12  C3        -1.6150  -20.9420   -7.5600 C.2     1  MOL1        0.2220
     13  O4        -1.7710  -21.9250   -6.7850 O.2     1  MOL1       -0.2750
     14  N7         1.8740  -21.3800   -9.0080 N.am    1  MOL1       -0.3460
     15  C8         2.9860  -21.3890   -8.1100 C.2     1  MOL1        0.2580
     16  O9         2.8290  -21.7290   -6.9080 O.2     1  MOL1       -0.2710
     17 C10         4.3530  -21.0070   -8.5930 C.3     1  MOL1        0.1670
     18 O11         5.0180  -20.2020   -7.6220 O.3     1  MOL1       -0.4800
     19 C12         5.9860  -19.2590   -7.9790 C.ar    1  MOL1        0.1660
     20 C13         7.2190  -19.6560   -8.5460 C.ar    1  MOL1        0.0120
     21 C21         8.1300  -18.6720   -8.9620 C.ar    1  MOL1       -0.0540
     22 C22         7.8460  -17.3190   -8.7750 C.ar    1  MOL1       -0.0580
     23 C23         6.6510  -16.9310   -8.1690 C.ar    1  MOL1       -0.0160
     24 C24         5.7130  -17.8990   -7.7620 C.ar    1  MOL1        0.1610
     25 C14         7.5850  -21.1140   -8.7160 C.3     1  MOL1        0.0280
     26 N15         8.4610  -21.2920   -9.8920 N.3     1  MOL1       -0.2870
     27 C16         8.0340  -22.4340  -10.7180 C.3     1  MOL1        0.0640
     28 C17         9.2930  -23.2200  -10.4120 C.3     1  MOL1        0.2720
     29 F18        10.1100  -23.4100  -11.5130 F       1  MOL1       -0.2040
     30 F19         9.0670  -24.3720   -9.6760 F       1  MOL1       -0.2040
     31 C20         9.6920  -22.0300   -9.5620 C.3     1  MOL1        0.0640
     32 O25         4.5010  -17.5510   -7.1480 O.3     1  MOL1       -0.4930
     33 C26         4.1630  -16.2360   -6.7220 C.3     1  MOL1        0.0780
@<TRIPOS>BOND
     1     6     5    1
     2     5     4   ar
     3     5     7   ar
     4     4     3   ar
     5    29    28    1
     6     7     1   ar
     7     3     2   ar
     8    27    28    1
     9    27    26    1
    10    28    30    1
    11    28    31    1
    12    26    31    1
    13    26    25    1
    14     1     2   ar
    15     1     8    1
    16    14     8    1
    17    14    15   am
    18    21    22   ar
    19    21    20   ar
    20    22    23   ar
    21    25    20    1
    22     8     9    1
    23    17    15    1
    24    17    18    1
    25    20    19   ar
    26    23    24   ar
    27    15    16    2
    28    11    10    1
    29    11    12   am
    30     9    12    1
    31    19    24   ar
    32    19    18    1
    33    24    32    1
    34    12    13    2
    35    32    33    1
