@<TRIPOS>MOLECULE
L3024_0_out.pdbqt
 33 35 0 0 0
SMALL
GASTEIGER

@<TRIPOS>ATOM
      1 C27         7.4290  -17.4090  -10.7120 C.ar    1  MOL1       -0.0240
      2 C28         7.6000  -17.8900  -12.0230 C.ar    1  MOL1       -0.0570
      3 C29         6.9970  -17.2340  -13.1010 C.ar    1  MOL1       -0.0610
      4 C30         6.2190  -16.0940  -12.8830 C.ar    1  MOL1       -0.0480
      5 C31         6.0440  -15.6030  -11.5840 C.ar    1  MOL1        0.0180
      6 Br32        4.9970  -14.0290  -11.2880 Br      1  MOL1       -0.0510
      7 C33         6.6410  -16.2590  -10.5030 C.ar    1  MOL1       -0.0430
      8  C6         8.0240  -18.1660   -9.5440 C.3     1  MOL1        0.0630
      9  C5         7.1320  -18.0020   -8.3000 C.3     1  MOL1        0.0510
     10  C1         5.0430  -21.1940   -9.0900 C.3     1  MOL1        0.0060
     11  N2         6.0980  -20.1910   -9.0940 N.am    1  MOL1       -0.3590
     12  C3         6.0220  -19.0130   -8.2820 C.2     1  MOL1        0.2220
     13  O4         5.0200  -18.8190   -7.5420 O.2     1  MOL1       -0.2750
     14  N7         9.3840  -17.6890   -9.2700 N.am    1  MOL1       -0.3460
     15  C8        10.5480  -18.3970   -9.7010 C.2     1  MOL1        0.2580
     16  O9        10.4350  -19.4800  -10.3340 O.2     1  MOL1       -0.2710
     17 C10        11.9160  -17.8520   -9.4160 C.3     1  MOL1        0.1670
     18 O11        12.2460  -18.0270   -8.0410 O.3     1  MOL1       -0.4800
     19 C12        13.3790  -18.7370   -7.6340 C.ar    1  MOL1        0.1660
     20 C13        14.6560  -18.1320   -7.6220 C.ar    1  MOL1        0.0120
     21 C21        15.7540  -18.8580   -7.1310 C.ar    1  MOL1       -0.0540
     22 C22        15.5970  -20.1780   -6.7060 C.ar    1  MOL1       -0.0580
     23 C23        14.3450  -20.7890   -6.7660 C.ar    1  MOL1       -0.0160
     24 C24        13.2260  -20.0750   -7.2350 C.ar    1  MOL1        0.1610
     25 C14        14.8750  -16.7220   -8.1250 C.3     1  MOL1        0.0280
     26 N15        15.0990  -15.8000   -6.9930 N.3     1  MOL1       -0.2870
     27 C16        14.2160  -16.1120   -5.8560 C.3     1  MOL1        0.0640
     28 C17        13.4600  -14.8050   -5.9910 C.3     1  MOL1        0.2720
     29 F18        13.6480  -13.9420   -4.9250 F       1  MOL1       -0.2040
     30 F19        12.1340  -14.9630   -6.3580 F       1  MOL1       -0.2040
     31 C20        14.3800  -14.5260   -7.1630 C.3     1  MOL1        0.0640
     32 O25        11.9510  -20.6540   -7.3120 O.3     1  MOL1       -0.4930
     33 C26        10.8390  -20.2610   -6.5160 C.3     1  MOL1        0.0780
@<TRIPOS>BOND
     1     3     4   ar
     2     3     2   ar
     3     4     5   ar
     4     2     1   ar
     5     5     6    1
     6     5     7   ar
     7     1     7   ar
     8     1     8    1
     9    16    15    2
    10    15    17    1
    11    15    14   am
    12     8    14    1
    13     8     9    1
    14    17    18    1
    15    11    10    1
    16    11    12   am
    17     9    12    1
    18    12    13    2
    19    25    20    1
    20    25    26    1
    21    18    19    1
    22    19    20   ar
    23    19    24   ar
    24    20    21   ar
    25    32    24    1
    26    32    33    1
    27    24    23   ar
    28    31    26    1
    29    31    28    1
    30    21    22   ar
    31    26    27    1
    32    23    22   ar
    33    30    28    1
    34    28    27    1
    35    28    29    1
