@<TRIPOS>MOLECULE
L3024_0_out.pdbqt
 33 35 0 0 0
SMALL
GASTEIGER

@<TRIPOS>ATOM
      1 C27        13.5080  -19.5110   -7.2060 C.ar    1  MOL1       -0.0240
      2 C28        14.6280  -19.5740   -6.3570 C.ar    1  MOL1       -0.0570
      3 C29        15.1430  -20.8110   -5.9550 C.ar    1  MOL1       -0.0610
      4 C30        14.5460  -21.9950   -6.3940 C.ar    1  MOL1       -0.0480
      5 C31        13.4330  -21.9480   -7.2420 C.ar    1  MOL1        0.0180
      6 Br32       12.6300  -23.5700   -7.8610 Br      1  MOL1       -0.0510
      7 C33        12.9120  -20.7130   -7.6420 C.ar    1  MOL1       -0.0430
      8  C6        12.9130  -18.1700   -7.5780 C.3     1  MOL1        0.0630
      9  C5        12.5930  -18.1350   -9.0830 C.3     1  MOL1        0.0510
     10  C1         8.8090  -17.2840   -8.7200 C.3     1  MOL1        0.0060
     11  N2        10.2470  -17.3320   -8.4990 N.am    1  MOL1       -0.3590
     12  C3        11.1120  -18.1140   -9.3300 C.2     1  MOL1        0.2220
     13  O4        10.6340  -18.7910  -10.2810 O.2     1  MOL1       -0.2750
     14  N7        13.8370  -17.0880   -7.2210 N.am    1  MOL1       -0.3460
     15  C8        13.4020  -15.8830   -6.5880 C.2     1  MOL1        0.2580
     16  O9        12.1830  -15.7090   -6.3230 O.2     1  MOL1       -0.2710
     17 C10        14.3920  -14.8190   -6.2210 C.3     1  MOL1        0.1670
     18 O11        15.6690  -15.1090   -6.7860 O.3     1  MOL1       -0.4800
     19 C12        16.5480  -16.0240   -6.2000 C.ar    1  MOL1        0.1660
     20 C13        16.7470  -16.0530   -4.8000 C.ar    1  MOL1        0.0120
     21 C21        17.5790  -17.0400   -4.2470 C.ar    1  MOL1       -0.0540
     22 C22        18.2410  -17.9520   -5.0700 C.ar    1  MOL1       -0.0580
     23 C23        18.0820  -17.8890   -6.4550 C.ar    1  MOL1       -0.0160
     24 C24        17.2380  -16.9220   -7.0300 C.ar    1  MOL1        0.1610
     25 C14        16.0890  -15.0480   -3.8810 C.3     1  MOL1        0.0280
     26 N15        15.5580  -15.7200   -2.6780 N.3     1  MOL1       -0.2870
     27 C16        14.1630  -15.3290   -2.4100 C.3     1  MOL1        0.0640
     28 C17        14.5310  -14.6250   -1.1190 C.3     1  MOL1        0.2720
     29 F18        14.0200  -15.2350    0.0120 F       1  MOL1       -0.2040
     30 F19        14.3320  -13.2540   -1.1560 F       1  MOL1       -0.2040
     31 C20        15.9560  -15.0340   -1.4360 C.3     1  MOL1        0.0640
     32 O25        17.0520  -16.8250   -8.4170 O.3     1  MOL1       -0.4930
     33 C26        16.5940  -17.8890   -9.2450 C.3     1  MOL1        0.0780
@<TRIPOS>BOND
     1    13    12    2
     2    12     9    1
     3    12    11   am
     4    33    32    1
     5     9     8    1
     6    10    11    1
     7    32    24    1
     8     6     5    1
     9     7     5   ar
    10     7     1   ar
    11     8    14    1
    12     8     1    1
    13     5     4   ar
    14    14    15   am
    15     1     2   ar
    16    24    23   ar
    17    24    19   ar
    18    18    17    1
    19    18    19    1
    20    15    16    2
    21    15    17    1
    22    23    22   ar
    23     4     3   ar
    24     2     3   ar
    25    19    20   ar
    26    22    21   ar
    27    20    21   ar
    28    20    25    1
    29    25    26    1
    30    26    27    1
    31    26    31    1
    32    27    28    1
    33    31    28    1
    34    30    28    1
    35    28    29    1
