@<TRIPOS>MOLECULE
L3024_0_out.pdbqt
 33 35 0 0 0
SMALL
GASTEIGER

@<TRIPOS>ATOM
      1 C27        15.3550  -16.2790   -4.7650 C.ar    1  MOL1       -0.0240
      2 C28        16.6790  -15.9040   -5.0550 C.ar    1  MOL1       -0.0570
      3 C29        17.7520  -16.6540   -4.5610 C.ar    1  MOL1       -0.0610
      4 C30        17.5140  -17.7840   -3.7730 C.ar    1  MOL1       -0.0480
      5 C31        16.2010  -18.1700   -3.4800 C.ar    1  MOL1        0.0180
      6 Br32       15.8750  -19.7290   -2.4200 Br      1  MOL1       -0.0510
      7 C33        15.1260  -17.4190   -3.9680 C.ar    1  MOL1       -0.0430
      8  C6        14.2030  -15.4210   -5.2420 C.3     1  MOL1        0.0630
      9  C5        13.3030  -15.0380   -4.0530 C.3     1  MOL1        0.0510
     10  C1        15.0050  -13.5770   -0.8690 C.3     1  MOL1        0.0060
     11  N2        14.3260  -14.4770   -1.7890 N.am    1  MOL1       -0.3590
     12  C3        13.9950  -14.0820   -3.1250 C.2     1  MOL1        0.2220
     13  O4        14.2880  -12.9250   -3.5330 O.2     1  MOL1       -0.2750
     14  N7        13.4300  -16.1320   -6.2660 N.am    1  MOL1       -0.3460
     15  C8        13.8020  -16.1340   -7.6460 C.2     1  MOL1        0.2580
     16  O9        14.8210  -15.5020   -8.0310 O.2     1  MOL1       -0.2710
     17 C10        12.9910  -16.9000   -8.6490 C.3     1  MOL1        0.1670
     18 O11        13.4960  -18.2250   -8.7920 O.3     1  MOL1       -0.4800
     19 C12        13.3700  -19.1800   -7.7810 C.ar    1  MOL1        0.1660
     20 C13        14.4850  -19.5760   -7.0050 C.ar    1  MOL1        0.0120
     21 C21        14.2970  -20.4800   -5.9470 C.ar    1  MOL1       -0.0540
     22 C22        13.0360  -21.0200   -5.6920 C.ar    1  MOL1       -0.0580
     23 C23        11.9480  -20.6670   -6.4900 C.ar    1  MOL1       -0.0160
     24 C24        12.1070  -19.7470   -7.5440 C.ar    1  MOL1        0.1610
     25 C14        15.8760  -19.0530   -7.2860 C.3     1  MOL1        0.0280
     26 N15        16.7230  -20.1190   -7.8580 N.3     1  MOL1       -0.2870
     27 C16        17.6550  -20.6660   -6.8570 C.3     1  MOL1        0.0640
     28 C17        18.8700  -20.1360   -7.5930 C.3     1  MOL1        0.2720
     29 F18        19.6810  -21.1290   -8.1150 F       1  MOL1       -0.2040
     30 F19        19.5600  -19.1560   -6.8970 F       1  MOL1       -0.2040
     31 C20        17.8780  -19.5770   -8.5940 C.3     1  MOL1        0.0640
     32 O25        11.0400  -19.3670   -8.3690 O.3     1  MOL1       -0.4930
     33 C26        10.6570  -20.0510   -9.5580 C.3     1  MOL1        0.0780
@<TRIPOS>BOND
     1    33    32    1
     2    18    17    1
     3    18    19    1
     4    17    15    1
     5    31    26    1
     6    31    28    1
     7    32    24    1
     8    29    28    1
     9    16    15    2
    10    26    25    1
    11    26    27    1
    12    19    24   ar
    13    19    20   ar
    14    15    14   am
    15    28    30    1
    16    28    27    1
    17    24    23   ar
    18    25    20    1
    19    20    21   ar
    20    23    22   ar
    21    14     8    1
    22    21    22   ar
    23     8     1    1
    24     8     9    1
    25     2     1   ar
    26     2     3   ar
    27     1     7   ar
    28     3     4   ar
    29     9    12    1
    30     7     5   ar
    31     4     5   ar
    32    13    12    2
    33     5     6    1
    34    12    11   am
    35    11    10    1
