@<TRIPOS>MOLECULE
L3024_0_out.pdbqt
 33 35 0 0 0
SMALL
GASTEIGER

@<TRIPOS>ATOM
      1 C27         8.4840  -17.8010   -9.1630 C.ar    1  MOL1       -0.0240
      2 C28         8.2110  -17.3850  -10.4790 C.ar    1  MOL1       -0.0570
      3 C29         7.0730  -16.6200  -10.7580 C.ar    1  MOL1       -0.0610
      4 C30         6.1980  -16.2640   -9.7280 C.ar    1  MOL1       -0.0480
      5 C31         6.4600  -16.6690   -8.4140 C.ar    1  MOL1        0.0180
      6 Br32        5.2730  -16.1630   -7.0010 Br      1  MOL1       -0.0510
      7 C33         7.5940  -17.4380   -8.1330 C.ar    1  MOL1       -0.0430
      8  C6         9.6770  -18.6890   -8.8820 C.3     1  MOL1        0.0630
      9  C5         9.2110  -20.0190   -8.2640 C.3     1  MOL1        0.0510
     10  C1         7.1340  -22.7050  -10.1740 C.3     1  MOL1        0.0060
     11  N2         7.5800  -21.7570   -9.1630 N.am    1  MOL1       -0.3590
     12  C3         8.7830  -20.9970   -9.3200 C.2     1  MOL1        0.2220
     13  O4         9.4930  -21.1420  -10.3530 O.2     1  MOL1       -0.2750
     14  N7        10.6190  -18.0060   -7.9880 N.am    1  MOL1       -0.3460
     15  C8        11.9730  -17.7380   -8.3580 C.2     1  MOL1        0.2580
     16  O9        12.4070  -18.0980   -9.4850 O.2     1  MOL1       -0.2710
     17 C10        12.8870  -17.0130   -7.4160 C.3     1  MOL1        0.1670
     18 O11        14.2280  -17.0460   -7.8970 O.3     1  MOL1       -0.4800
     19 C12        15.3260  -17.0500   -7.0330 C.ar    1  MOL1        0.1660
     20 C13        15.5970  -18.1590   -6.1980 C.ar    1  MOL1        0.0120
     21 C21        16.7550  -18.1520   -5.4040 C.ar    1  MOL1       -0.0540
     22 C22        17.6050  -17.0460   -5.4000 C.ar    1  MOL1       -0.0580
     23 C23        17.3090  -15.9320   -6.1860 C.ar    1  MOL1       -0.0160
     24 C24        16.1650  -15.9240   -7.0050 C.ar    1  MOL1        0.1610
     25 C14        14.6710  -19.3530   -6.1360 C.3     1  MOL1        0.0280
     26 N15        15.2580  -20.5000   -6.8600 N.3     1  MOL1       -0.2870
     27 C16        14.6680  -20.6540   -8.2000 C.3     1  MOL1        0.0640
     28 C17        14.0240  -21.9800   -7.8440 C.3     1  MOL1        0.2720
     29 F18        14.5540  -23.0570   -8.5320 F       1  MOL1       -0.2040
     30 F19        12.6400  -21.9440   -7.8380 F       1  MOL1       -0.2040
     31 C20        14.6380  -21.7780   -6.4720 C.3     1  MOL1        0.0640
     32 O25        15.8320  -14.8240   -7.8090 O.3     1  MOL1       -0.4930
     33 C26        14.6620  -14.0300   -7.6440 C.3     1  MOL1        0.0780
@<TRIPOS>BOND
     1     3     2   ar
     2     3     4   ar
     3     2     1   ar
     4    13    12    2
     5    10    11    1
     6     4     5   ar
     7    16    15    2
     8    12    11   am
     9    12     9    1
    10     1     8    1
    11     1     7   ar
    12     8     9    1
    13     8    14    1
    14    29    28    1
    15     5     7   ar
    16     5     6    1
    17    15    14   am
    18    15    17    1
    19    27    28    1
    20    27    26    1
    21    18    17    1
    22    18    19    1
    23    28    30    1
    24    28    31    1
    25    32    33    1
    26    32    24    1
    27    19    24   ar
    28    19    20   ar
    29    24    23   ar
    30    26    31    1
    31    26    25    1
    32    20    25    1
    33    20    21   ar
    34    23    22   ar
    35    21    22   ar
