@<TRIPOS>MOLECULE
L3024_0_out.pdbqt
 33 35 0 0 0
SMALL
GASTEIGER

@<TRIPOS>ATOM
      1 C27        10.1310  -18.4170   -9.0130 C.ar    1  MOL1       -0.0240
      2 C28         9.7970  -17.4020   -8.0980 C.ar    1  MOL1       -0.0570
      3 C29         8.7440  -16.5220   -8.3700 C.ar    1  MOL1       -0.0610
      4 C30         8.0150  -16.6460   -9.5560 C.ar    1  MOL1       -0.0480
      5 C31         8.3340  -17.6530  -10.4730 C.ar    1  MOL1        0.0180
      6 Br32        7.3220  -17.8360  -12.0860 Br      1  MOL1       -0.0510
      7 C33         9.3900  -18.5310  -10.2070 C.ar    1  MOL1       -0.0430
      8  C6        11.3170  -19.3180   -8.7450 C.3     1  MOL1        0.0630
      9  C5        10.9200  -20.4320   -7.7600 C.3     1  MOL1        0.0510
     10  C1        11.7710  -24.0710   -8.8600 C.3     1  MOL1        0.0060
     11  N2        11.0480  -22.8370   -8.5900 N.am    1  MOL1       -0.3590
     12  C3        11.6920  -21.6940   -8.0170 C.2     1  MOL1        0.2220
     13  O4        12.9190  -21.7390   -7.7260 O.2     1  MOL1       -0.2750
     14  N7        12.4400  -18.5360   -8.2170 N.am    1  MOL1       -0.3460
     15  C8        13.6610  -18.3610   -8.9370 C.2     1  MOL1        0.2580
     16  O9        13.8140  -18.8940  -10.0680 O.2     1  MOL1       -0.2710
     17 C10        14.7680  -17.5300   -8.3610 C.3     1  MOL1        0.1670
     18 O11        15.0940  -17.9740   -7.0460 O.3     1  MOL1       -0.4800
     19 C12        16.3800  -17.8400   -6.5160 C.ar    1  MOL1        0.1660
     20 C13        16.7720  -16.6640   -5.8360 C.ar    1  MOL1        0.0120
     21 C21        18.0470  -16.6030   -5.2500 C.ar    1  MOL1       -0.0540
     22 C22        18.9360  -17.6710   -5.3780 C.ar    1  MOL1       -0.0580
     23 C23        18.5660  -18.8100   -6.0920 C.ar    1  MOL1       -0.0160
     24 C24        17.2870  -18.9020   -6.6710 C.ar    1  MOL1        0.1610
     25 C14        15.8550  -15.4660   -5.7230 C.3     1  MOL1        0.0280
     26 N15        14.7860  -15.7260   -4.7360 N.3     1  MOL1       -0.2870
     27 C16        13.6180  -14.8580   -4.9620 C.3     1  MOL1        0.0640
     28 C17        13.8210  -14.1210   -3.6530 C.3     1  MOL1        0.2720
     29 F18        12.8140  -14.3410   -2.7290 F       1  MOL1       -0.2040
     30 F19        14.1550  -12.7860   -3.8110 F       1  MOL1       -0.2040
     31 C20        15.0240  -15.0240   -3.4630 C.3     1  MOL1        0.0640
     32 O25        16.8760  -20.0290   -7.3970 O.3     1  MOL1       -0.4930
     33 C26        17.4340  -21.3300   -7.2480 C.3     1  MOL1        0.0780
@<TRIPOS>BOND
     1     6     5    1
     2     5     7   ar
     3     5     4   ar
     4     7     1   ar
     5    16    15    2
     6     4     3   ar
     7     1     8    1
     8     1     2   ar
     9    15    17    1
    10    15    14   am
    11    10    11    1
    12     8    14    1
    13     8     9    1
    14    11    12   am
    15     3     2   ar
    16    17    18    1
    17    12     9    1
    18    12    13    2
    19    32    33    1
    20    32    24    1
    21    18    19    1
    22    24    19   ar
    23    24    23   ar
    24    19    20   ar
    25    23    22   ar
    26    20    25    1
    27    20    21   ar
    28    25    26    1
    29    22    21   ar
    30    27    26    1
    31    27    28    1
    32    26    31    1
    33    30    28    1
    34    28    31    1
    35    28    29    1
