@<TRIPOS>MOLECULE
L3024_0_out.pdbqt
 33 35 0 0 0
SMALL
GASTEIGER

@<TRIPOS>ATOM
      1 C27        15.2950  -19.2160   -4.4820 C.ar    1  MOL1       -0.0240
      2 C28        15.1560  -19.7710   -3.1970 C.ar    1  MOL1       -0.0570
      3 C29        15.2480  -18.9580   -2.0620 C.ar    1  MOL1       -0.0610
      4 C30        15.4800  -17.5870   -2.1980 C.ar    1  MOL1       -0.0480
      5 C31        15.6160  -17.0220   -3.4710 C.ar    1  MOL1        0.0180
      6 Br32       15.9110  -15.1410   -3.6570 Br      1  MOL1       -0.0510
      7 C33        15.5300  -17.8320   -4.6080 C.ar    1  MOL1       -0.0430
      8  C6        15.2660  -20.1130   -5.7010 C.3     1  MOL1        0.0630
      9  C5        16.6940  -20.3130   -6.2420 C.3     1  MOL1        0.0510
     10  C1        17.4800  -22.7240   -9.1990 C.3     1  MOL1        0.0060
     11  N2        17.3540  -21.5250   -8.3830 N.am    1  MOL1       -0.3590
     12  C3        16.8010  -21.5660   -7.0630 C.2     1  MOL1        0.2220
     13  O4        16.4010  -22.6590   -6.5780 O.2     1  MOL1       -0.2750
     14  N7        14.3980  -19.5380   -6.7350 N.am    1  MOL1       -0.3460
     15  C8        13.2820  -20.2440   -7.2810 C.2     1  MOL1        0.2580
     16  O9        13.0120  -21.4090   -6.8870 O.2     1  MOL1       -0.2710
     17 C10        12.4110  -19.5990   -8.3170 C.3     1  MOL1        0.1670
     18 O11        11.0550  -19.5630   -7.8770 O.3     1  MOL1       -0.4800
     19 C12        10.1430  -18.6220   -8.3630 C.ar    1  MOL1        0.1660
     20 C13         9.2480  -18.9440   -9.4090 C.ar    1  MOL1        0.0120
     21 C21         8.2950  -17.9940   -9.8120 C.ar    1  MOL1       -0.0540
     22 C22         8.2620  -16.7300   -9.2230 C.ar    1  MOL1       -0.0580
     23 C23         9.1790  -16.3970   -8.2260 C.ar    1  MOL1       -0.0160
     24 C24        10.1300  -17.3390   -7.7920 C.ar    1  MOL1        0.1610
     25 C14         9.2880  -20.2850  -10.1080 C.3     1  MOL1        0.0280
     26 N15         7.9270  -20.7050  -10.4990 N.3     1  MOL1       -0.2870
     27 C16         7.2930  -21.5280   -9.4550 C.3     1  MOL1        0.0640
     28 C17         7.2770  -22.7620  -10.3360 C.3     1  MOL1        0.2720
     29 F18         6.0050  -23.1750  -10.6910 F       1  MOL1       -0.2040
     30 F19         8.0920  -23.7850   -9.8780 F       1  MOL1       -0.2040
     31 C20         7.9410  -21.8850  -11.3800 C.3     1  MOL1        0.0640
     32 O25        11.0700  -17.0440   -6.7930 O.3     1  MOL1       -0.4930
     33 C26        12.2560  -16.2860   -7.0030 C.3     1  MOL1        0.0780
@<TRIPOS>BOND
     1    31    26    1
     2    31    28    1
     3    29    28    1
     4    26    25    1
     5    26    27    1
     6    28    30    1
     7    28    27    1
     8    25    20    1
     9    21    20   ar
    10    21    22   ar
    11    20    19   ar
    12    22    23   ar
    13    10    11    1
    14    11    12   am
    15    19    18    1
    16    19    24   ar
    17    17    18    1
    18    17    15    1
    19    23    24   ar
    20    24    32    1
    21    15    16    2
    22    15    14   am
    23    12    13    2
    24    12     9    1
    25    33    32    1
    26    14     8    1
    27     9     8    1
    28     8     1    1
    29     7     1   ar
    30     7     5   ar
    31     1     2   ar
    32     6     5    1
    33     5     4   ar
    34     2     3   ar
    35     4     3   ar
