@<TRIPOS>MOLECULE
L3024_0_out.pdbqt
 33 35 0 0 0
SMALL
GASTEIGER

@<TRIPOS>ATOM
      1 C27         9.2900  -18.2020   -9.4750 C.ar    1  MOL1       -0.0240
      2 C28         8.8630  -17.2850   -8.4970 C.ar    1  MOL1       -0.0570
      3 C29         7.8670  -16.3480   -8.7930 C.ar    1  MOL1       -0.0610
      4 C30         7.2890  -16.3170  -10.0650 C.ar    1  MOL1       -0.0480
      5 C31         7.7030  -17.2260  -11.0460 C.ar    1  MOL1        0.0180
      6 Br32        6.8950  -17.1970  -12.7800 Br      1  MOL1       -0.0510
      7 C33         8.7020  -18.1610  -10.7550 C.ar    1  MOL1       -0.0430
      8  C6        10.4180  -19.1640   -9.1700 C.3     1  MOL1        0.0630
      9  C5         9.9520  -20.2150   -8.1460 C.3     1  MOL1        0.0510
     10  C1         7.1510  -22.5000   -9.5980 C.3     1  MOL1        0.0060
     11  N2         7.8430  -21.3990   -8.9440 N.am    1  MOL1       -0.3590
     12  C3         9.2680  -21.3710   -8.8170 C.2     1  MOL1        0.2220
     13  O4         9.9620  -22.3210   -9.2740 O.2     1  MOL1       -0.2750
     14  N7        11.5860  -18.4340   -8.6650 N.am    1  MOL1       -0.3460
     15  C8        12.7760  -19.0940   -8.2290 C.2     1  MOL1        0.2580
     16  O9        12.8520  -20.3510   -8.2580 O.2     1  MOL1       -0.2710
     17 C10        13.9510  -18.2980   -7.7460 C.3     1  MOL1        0.1670
     18 O11        14.4470  -18.8330   -6.5210 O.3     1  MOL1       -0.4800
     19 C12        15.8010  -18.7750   -6.1810 C.ar    1  MOL1        0.1660
     20 C13        16.2920  -17.7810   -5.3030 C.ar    1  MOL1        0.0120
     21 C21        17.6450  -17.8070   -4.9260 C.ar    1  MOL1       -0.0540
     22 C22        18.5070  -18.7720   -5.4480 C.ar    1  MOL1       -0.0580
     23 C23        18.0320  -19.7210   -6.3530 C.ar    1  MOL1       -0.0160
     24 C24        16.6760  -19.7270   -6.7300 C.ar    1  MOL1        0.1610
     25 C14        15.4000  -16.6880   -4.7580 C.3     1  MOL1        0.0280
     26 N15        15.7650  -15.3830   -5.3470 N.3     1  MOL1       -0.2870
     27 C16        15.0100  -15.1160   -6.5830 C.3     1  MOL1        0.0640
     28 C17        16.2550  -15.1760   -7.4440 C.3     1  MOL1        0.2720
     29 F18        16.5940  -13.9620   -8.0170 F       1  MOL1       -0.2040
     30 F19        16.2680  -16.2390   -8.3330 F       1  MOL1       -0.2040
     31 C20        16.9960  -15.4620   -6.1530 C.3     1  MOL1        0.0640
     32 O25        16.1580  -20.6620   -7.6380 O.3     1  MOL1       -0.4930
     33 C26        16.0910  -22.0640   -7.3990 C.3     1  MOL1        0.0780
@<TRIPOS>BOND
     1     6     5    1
     2     5     7   ar
     3     5     4   ar
     4     7     1   ar
     5     4     3   ar
     6    10    11    1
     7     1     8    1
     8     1     2   ar
     9    13    12    2
    10     8    14    1
    11     8     9    1
    12    11    12   am
    13    12     9    1
    14     3     2   ar
    15    14    15   am
    16    30    28    1
    17    16    15    2
    18    15    17    1
    19    29    28    1
    20    17    18    1
    21    32    33    1
    22    32    24    1
    23    28    27    1
    24    28    31    1
    25    24    23   ar
    26    24    19   ar
    27    27    26    1
    28    18    19    1
    29    23    22   ar
    30    19    20   ar
    31    31    26    1
    32    22    21   ar
    33    26    25    1
    34    20    21   ar
    35    20    25    1
