@<TRIPOS>MOLECULE
L3024_0_out.pdbqt
 33 35 0 0 0
SMALL
GASTEIGER

@<TRIPOS>ATOM
      1 C27         7.4500  -18.8370   -9.6230 C.ar    1  MOL1       -0.0240
      2 C28         7.6350  -18.0850  -10.7970 C.ar    1  MOL1       -0.0570
      3 C29         7.1280  -16.7840  -10.8910 C.ar    1  MOL1       -0.0610
      4 C30         6.4320  -16.2230   -9.8160 C.ar    1  MOL1       -0.0480
      5 C31         6.2450  -16.9600   -8.6410 C.ar    1  MOL1        0.0180
      6 Br32        5.3120  -16.1830   -7.1630 Br      1  MOL1       -0.0510
      7 C33         6.7460  -18.2620   -8.5460 C.ar    1  MOL1       -0.0430
      8  C6         7.9380  -20.2680   -9.5560 C.3     1  MOL1        0.0630
      9  C5         7.3790  -20.9580   -8.2980 C.3     1  MOL1        0.0510
     10  C1         4.1620  -22.1670  -10.1310 C.3     1  MOL1        0.0060
     11  N2         5.4900  -21.6330   -9.8680 N.am    1  MOL1       -0.3590
     12  C3         6.0010  -21.5030   -8.5360 C.2     1  MOL1        0.2220
     13  O4         5.2940  -21.8510   -7.5510 O.2     1  MOL1       -0.2750
     14  N7         9.4050  -20.3060   -9.5560 N.am    1  MOL1       -0.3460
     15  C8        10.1890  -19.7470   -8.5000 C.2     1  MOL1        0.2580
     16  O9         9.6280  -19.1840   -7.5220 O.2     1  MOL1       -0.2710
     17 C10        11.6850  -19.8360   -8.5380 C.3     1  MOL1        0.1670
     18 O11        12.2260  -19.6950   -7.2260 O.3     1  MOL1       -0.4800
     19 C12        13.5240  -20.1070   -6.9120 C.ar    1  MOL1        0.1660
     20 C13        14.6220  -19.2260   -7.0390 C.ar    1  MOL1        0.0120
     21 C21        15.8970  -19.6570   -6.6370 C.ar    1  MOL1       -0.0540
     22 C22        16.0880  -20.9550   -6.1620 C.ar    1  MOL1       -0.0580
     23 C23        15.0120  -21.8390   -6.0850 C.ar    1  MOL1       -0.0160
     24 C24        13.7220  -21.4240   -6.4630 C.ar    1  MOL1        0.1610
     25 C14        14.4620  -17.8300   -7.5990 C.3     1  MOL1        0.0280
     26 N15        14.0840  -16.8850   -6.5280 N.3     1  MOL1       -0.2870
     27 C16        13.0790  -15.9140   -6.9930 C.3     1  MOL1        0.0640
     28 C17        14.0380  -14.7470   -6.8590 C.3     1  MOL1        0.2720
     29 F18        13.6810  -13.8450   -5.8720 F       1  MOL1       -0.2040
     30 F19        14.3680  -14.1550   -8.0670 F       1  MOL1       -0.2040
     31 C20        15.0480  -15.7790   -6.3980 C.3     1  MOL1        0.0640
     32 O25        12.6150  -22.2810   -6.4010 O.3     1  MOL1       -0.4930
     33 C26        12.6980  -23.6990   -6.2990 C.3     1  MOL1        0.0780
@<TRIPOS>BOND
     1     3     2   ar
     2     3     4   ar
     3     2     1   ar
     4    10    11    1
     5    11    12   am
     6     4     5   ar
     7     1     8    1
     8     1     7   ar
     9     8    14    1
    10     8     9    1
    11    14    15   am
    12     5     7   ar
    13     5     6    1
    14    17    15    1
    15    17    18    1
    16    12     9    1
    17    12    13    2
    18    15    16    2
    19    30    28    1
    20    25    20    1
    21    25    26    1
    22    18    19    1
    23    20    19   ar
    24    20    21   ar
    25    27    28    1
    26    27    26    1
    27    19    24   ar
    28    28    31    1
    29    28    29    1
    30    21    22   ar
    31    26    31    1
    32    24    32    1
    33    24    23   ar
    34    32    33    1
    35    22    23   ar
