@<TRIPOS>MOLECULE
L3024_0_out.pdbqt
 33 35 0 0 0
SMALL
GASTEIGER

@<TRIPOS>ATOM
      1 C27        10.0220  -18.4350   -8.1000 C.ar    1  MOL1       -0.0240
      2 C28         9.8360  -17.0510   -8.2690 C.ar    1  MOL1       -0.0570
      3 C29         8.5750  -16.5410   -8.5990 C.ar    1  MOL1       -0.0610
      4 C30         7.4900  -17.4070   -8.7630 C.ar    1  MOL1       -0.0480
      5 C31         7.6610  -18.7850   -8.5940 C.ar    1  MOL1        0.0180
      6 Br32        6.1700  -19.9670   -8.7970 Br      1  MOL1       -0.0510
      7 C33         8.9210  -19.2990   -8.2700 C.ar    1  MOL1       -0.0430
      8  C6        11.4030  -18.9840   -7.8150 C.3     1  MOL1        0.0630
      9  C5        11.2980  -20.2540   -6.9520 C.3     1  MOL1        0.0510
     10  C1        13.8350  -23.0570   -7.8910 C.3     1  MOL1        0.0060
     11  N2        13.2140  -21.9060   -7.2530 N.am    1  MOL1       -0.3590
     12  C3        11.9160  -21.4380   -7.6380 C.2     1  MOL1        0.2220
     13  O4        11.2810  -22.0220   -8.5580 O.2     1  MOL1       -0.2750
     14  N7        12.2250  -17.9700   -7.1440 N.am    1  MOL1       -0.3460
     15  C8        13.5800  -17.7090   -7.5160 C.2     1  MOL1        0.2580
     16  O9        14.1210  -18.3650   -8.4450 O.2     1  MOL1       -0.2710
     17 C10        14.3660  -16.6430   -6.8140 C.3     1  MOL1        0.1670
     18 O11        14.8650  -17.1290   -5.5700 O.3     1  MOL1       -0.4800
     19 C12        16.0720  -16.6780   -5.0290 C.ar    1  MOL1        0.1660
     20 C13        17.3130  -17.1270   -5.5350 C.ar    1  MOL1        0.0120
     21 C21        18.5010  -16.5880   -5.0140 C.ar    1  MOL1       -0.0540
     22 C22        18.4610  -15.6570   -3.9760 C.ar    1  MOL1       -0.0580
     23 C23        17.2370  -15.2530   -3.4440 C.ar    1  MOL1       -0.0160
     24 C24        16.0330  -15.7640   -3.9630 C.ar    1  MOL1        0.1610
     25 C14        17.3980  -18.1750   -6.6230 C.3     1  MOL1        0.0280
     26 N15        17.5100  -19.5240   -6.0330 N.3     1  MOL1       -0.2870
     27 C16        18.2620  -20.4380   -6.9090 C.3     1  MOL1        0.0640
     28 C17        17.0470  -21.3070   -7.1680 C.3     1  MOL1        0.2720
     29 F18        17.1510  -22.5810   -6.6360 F       1  MOL1       -0.2040
     30 F19        16.6140  -21.2820   -8.4830 F       1  MOL1       -0.2040
     31 C20        16.3040  -20.3370   -6.2710 C.3     1  MOL1        0.0640
     32 O25        14.7820  -15.3850   -3.4560 O.3     1  MOL1       -0.4930
     33 C26        14.0270  -14.2720   -3.9220 C.3     1  MOL1        0.0780
@<TRIPOS>BOND
     1     6     5    1
     2     4     3   ar
     3     4     5   ar
     4     3     2   ar
     5     5     7   ar
     6    13    12    2
     7    30    28    1
     8    16    15    2
     9     7     1   ar
    10     2     1   ar
    11     1     8    1
    12    10    11    1
    13     8    14    1
    14     8     9    1
    15    12    11   am
    16    12     9    1
    17    15    14   am
    18    15    17    1
    19    28    27    1
    20    28    29    1
    21    28    31    1
    22    27    26    1
    23    17    18    1
    24    25    26    1
    25    25    20    1
    26    31    26    1
    27    18    19    1
    28    20    19   ar
    29    20    21   ar
    30    19    24   ar
    31    21    22   ar
    32    22    23   ar
    33    24    32    1
    34    24    23   ar
    35    33    32    1
