@<TRIPOS>MOLECULE
L3024_0_out.pdbqt
 33 35 0 0 0
SMALL
GASTEIGER

@<TRIPOS>ATOM
      1 C27        15.2140  -17.3130   -1.2560 C.ar    1  MOL1       -0.0240
      2 C28        14.6770  -16.1910   -0.5990 C.ar    1  MOL1       -0.0570
      3 C29        13.8660  -16.3530    0.5300 C.ar    1  MOL1       -0.0610
      4 C30        13.5830  -17.6340    1.0130 C.ar    1  MOL1       -0.0480
      5 C31        14.1140  -18.7580    0.3700 C.ar    1  MOL1        0.0180
      6 Br32       13.7440  -20.5100    1.0450 Br      1  MOL1       -0.0510
      7 C33        14.9210  -18.6000   -0.7610 C.ar    1  MOL1       -0.0430
      8  C6        16.0300  -17.1330   -2.5170 C.3     1  MOL1        0.0630
      9  C5        16.2320  -15.6350   -2.8050 C.3     1  MOL1        0.0510
     10  C1        19.7820  -15.1510   -4.3330 C.3     1  MOL1        0.0060
     11  N2        18.3740  -15.4850   -4.1750 N.am    1  MOL1       -0.3590
     12  C3        17.6880  -15.2900   -2.9340 C.2     1  MOL1        0.2220
     13  O4        18.3040  -14.8230   -1.9370 O.2     1  MOL1       -0.2750
     14  N7        15.3680  -17.7920   -3.6490 N.am    1  MOL1       -0.3460
     15  C8        15.9380  -18.9130   -4.3270 C.2     1  MOL1        0.2580
     16  O9        17.0560  -19.3710   -3.9690 O.2     1  MOL1       -0.2710
     17 C10        15.2070  -19.5650   -5.4610 C.3     1  MOL1        0.1670
     18 O11        15.7470  -19.1440   -6.7120 O.3     1  MOL1       -0.4800
     19 C12        15.7620  -17.8010   -7.0980 C.ar    1  MOL1        0.1660
     20 C13        14.5610  -17.0990   -7.3500 C.ar    1  MOL1        0.0120
     21 C21        14.6190  -15.7300   -7.6580 C.ar    1  MOL1       -0.0540
     22 C22        15.8480  -15.0790   -7.7620 C.ar    1  MOL1       -0.0580
     23 C23        17.0350  -15.7850   -7.5630 C.ar    1  MOL1       -0.0160
     24 C24        17.0010  -17.1530   -7.2330 C.ar    1  MOL1        0.1610
     25 C14        13.2130  -17.7830   -7.2980 C.3     1  MOL1        0.0280
     26 N15        12.2050  -16.9930   -8.0330 N.3     1  MOL1       -0.2870
     27 C16        10.9680  -16.8300   -7.2510 C.3     1  MOL1        0.0640
     28 C17        10.1540  -17.6570   -8.2270 C.3     1  MOL1        0.2720
     29 F18         9.1930  -16.9290   -8.9060 F       1  MOL1       -0.2040
     30 F19         9.6850  -18.8470   -7.6950 F       1  MOL1       -0.2040
     31 C20        11.4510  -17.8120   -8.9980 C.3     1  MOL1        0.0640
     32 O25        18.1700  -17.8980   -7.0250 O.3     1  MOL1       -0.4930
     33 C26        18.6400  -18.9200   -7.8990 C.3     1  MOL1        0.0780
@<TRIPOS>BOND
     1    31    28    1
     2    31    26    1
     3    29    28    1
     4    28    30    1
     5    28    27    1
     6    26    25    1
     7    26    27    1
     8    33    32    1
     9    22    21   ar
    10    22    23   ar
    11    21    20   ar
    12    23    24   ar
    13    20    25    1
    14    20    19   ar
    15    24    19   ar
    16    24    32    1
    17    19    18    1
    18    18    17    1
    19    17    15    1
    20    10    11    1
    21    15    16    2
    22    15    14   am
    23    11    12   am
    24    14     8    1
    25    12     9    1
    26    12    13    2
    27     9     8    1
    28     8     1    1
    29     1     7   ar
    30     1     2   ar
    31     7     5   ar
    32     2     3   ar
    33     5     4   ar
    34     5     6    1
    35     3     4   ar
