@<TRIPOS>MOLECULE
L3024_0_out.pdbqt
 33 35 0 0 0
SMALL
GASTEIGER

@<TRIPOS>ATOM
      1 C27         9.6650  -18.3460   -8.9960 C.ar    1  MOL1       -0.0240
      2 C28         9.4360  -17.2880   -8.0980 C.ar    1  MOL1       -0.0570
      3 C29         8.5180  -16.2790   -8.4110 C.ar    1  MOL1       -0.0610
      4 C30         7.8210  -16.3170   -9.6220 C.ar    1  MOL1       -0.0480
      5 C31         8.0370  -17.3660  -10.5230 C.ar    1  MOL1        0.0180
      6 Br32        7.0660  -17.4280  -12.1700 Br      1  MOL1       -0.0510
      7 C33         8.9570  -18.3730  -10.2150 C.ar    1  MOL1       -0.0430
      8  C6        10.7110  -19.3930   -8.6820 C.3     1  MOL1        0.0630
      9  C5        10.0380  -20.6630   -8.1320 C.3     1  MOL1        0.0510
     10  C1         9.5420  -23.0070  -11.2030 C.3     1  MOL1        0.0060
     11  N2         9.4060  -21.9020  -10.2650 N.am    1  MOL1       -0.3590
     12  C3        10.1950  -21.8220   -9.0740 C.2     1  MOL1        0.2220
     13  O4        11.0330  -22.7270   -8.8080 O.2     1  MOL1       -0.2750
     14  N7        11.6850  -18.8660   -7.7190 N.am    1  MOL1       -0.3460
     15  C8        13.0120  -19.3840   -7.6060 C.2     1  MOL1        0.2580
     16  O9        13.3870  -20.3370   -8.3390 O.2     1  MOL1       -0.2710
     17 C10        13.9760  -18.7910   -6.6220 C.3     1  MOL1        0.1670
     18 O11        15.0050  -18.0760   -7.3020 O.3     1  MOL1       -0.4800
     19 C12        16.2790  -17.9090   -6.7520 C.ar    1  MOL1        0.1660
     20 C13        16.5890  -16.7840   -5.9540 C.ar    1  MOL1        0.0120
     21 C21        17.8580  -16.6970   -5.3570 C.ar    1  MOL1       -0.0540
     22 C22        18.8180  -17.6830   -5.5870 C.ar    1  MOL1       -0.0580
     23 C23        18.5260  -18.7660   -6.4150 C.ar    1  MOL1       -0.0160
     24 C24        17.2550  -18.8850   -7.0080 C.ar    1  MOL1        0.1610
     25 C14        15.5930  -15.6690   -5.7260 C.3     1  MOL1        0.0280
     26 N15        14.9580  -15.8080   -4.4000 N.3     1  MOL1       -0.2870
     27 C16        13.6560  -15.1210   -4.3470 C.3     1  MOL1        0.0640
     28 C17        14.1520  -14.1040   -3.3380 C.3     1  MOL1        0.2720
     29 F18        13.5470  -14.2130   -2.0970 F       1  MOL1       -0.2040
     30 F19        14.1990  -12.8090   -3.8270 F       1  MOL1       -0.2040
     31 C20        15.4790  -14.8310   -3.4290 C.3     1  MOL1        0.0640
     32 O25        16.9220  -19.9580   -7.8480 O.3     1  MOL1       -0.4930
     33 C26        17.7680  -20.4730   -8.8710 C.3     1  MOL1        0.0780
@<TRIPOS>BOND
     1     6     5    1
     2    10    11    1
     3     5     7   ar
     4     5     4   ar
     5    11    12   am
     6     7     1   ar
     7     4     3   ar
     8    12    13    2
     9    12     9    1
    10     1     8    1
    11     1     2   ar
    12    33    32    1
    13     8     9    1
    14     8    14    1
    15     3     2   ar
    16    16    15    2
    17    32    24    1
    18    14    15   am
    19    15    17    1
    20    18    19    1
    21    18    17    1
    22    24    19   ar
    23    24    23   ar
    24    19    20   ar
    25    23    22   ar
    26    20    25    1
    27    20    21   ar
    28    25    26    1
    29    22    21   ar
    30    26    27    1
    31    26    31    1
    32    27    28    1
    33    30    28    1
    34    31    28    1
    35    28    29    1
