@<TRIPOS>MOLECULE
L3024_0_out.pdbqt
 33 35 0 0 0
SMALL
GASTEIGER

@<TRIPOS>ATOM
      1 C27         7.1990  -19.8880   -9.7050 C.ar    1  MOL1       -0.0240
      2 C28         7.3400  -20.8580  -10.7150 C.ar    1  MOL1       -0.0570
      3 C29         6.4020  -21.8880  -10.8410 C.ar    1  MOL1       -0.0610
      4 C30         5.3170  -21.9610   -9.9630 C.ar    1  MOL1       -0.0480
      5 C31         5.1640  -21.0000   -8.9570 C.ar    1  MOL1        0.0180
      6 Br32        3.6660  -21.0880   -7.7690 Br      1  MOL1       -0.0510
      7 C33         6.1020  -19.9720   -8.8240 C.ar    1  MOL1       -0.0430
      8  C6         8.2570  -18.8190   -9.5290 C.3     1  MOL1        0.0630
      9  C5         8.2660  -17.8810  -10.7500 C.3     1  MOL1        0.0510
     10  C1         5.6010  -15.1800  -11.6280 C.3     1  MOL1        0.0060
     11  N2         6.5830  -16.2480  -11.7430 N.am    1  MOL1       -0.3590
     12  C3         7.2660  -16.7720  -10.5990 C.2     1  MOL1        0.2220
     13  O4         7.0270  -16.3050   -9.4520 O.2     1  MOL1       -0.2750
     14  N7         9.5750  -19.4350   -9.3410 N.am    1  MOL1       -0.3460
     15  C8        10.6900  -18.7170   -8.8090 C.2     1  MOL1        0.2580
     16  O9        10.5710  -17.5040   -8.4890 O.2     1  MOL1       -0.2710
     17 C10        12.0090  -19.4020   -8.6120 C.3     1  MOL1        0.1670
     18 O11        12.3780  -19.3890   -7.2350 O.3     1  MOL1       -0.4800
     19 C12        13.6220  -19.8500   -6.7960 C.ar    1  MOL1        0.1660
     20 C13        14.7550  -19.0040   -6.7910 C.ar    1  MOL1        0.0120
     21 C21        15.9670  -19.4850   -6.2680 C.ar    1  MOL1       -0.0540
     22 C22        16.0660  -20.7960   -5.8030 C.ar    1  MOL1       -0.0580
     23 C23        14.9600  -21.6450   -5.8550 C.ar    1  MOL1       -0.0160
     24 C24        13.7300  -21.1790   -6.3570 C.ar    1  MOL1        0.1610
     25 C14        14.6990  -17.5940   -7.3360 C.3     1  MOL1        0.0280
     26 N15        14.2560  -16.6530   -6.2860 N.3     1  MOL1       -0.2870
     27 C16        13.2050  -15.7470   -6.7800 C.3     1  MOL1        0.0640
     28 C17        14.0960  -14.5270   -6.6550 C.3     1  MOL1        0.2720
     29 F18        13.6780  -13.6290   -5.6890 F       1  MOL1       -0.2040
     30 F19        14.4090  -13.9390   -7.8700 F       1  MOL1       -0.2040
     31 C20        15.1570  -15.4930   -6.1640 C.3     1  MOL1        0.0640
     32 O25        12.5960  -22.0000   -6.4280 O.3     1  MOL1       -0.4930
     33 C26        12.6270  -23.4230   -6.3920 C.3     1  MOL1        0.0780
@<TRIPOS>BOND
     1    11    10    1
     2    11    12   am
     3     3     2   ar
     4     3     4   ar
     5     9    12    1
     6     9     8    1
     7     2     1   ar
     8    12    13    2
     9     4     5   ar
    10     1     8    1
    11     1     7   ar
    12     8    14    1
    13    14    15   am
    14     5     7   ar
    15     5     6    1
    16    15    17    1
    17    15    16    2
    18    17    18    1
    19    30    28    1
    20    25    20    1
    21    25    26    1
    22    18    19    1
    23    19    20   ar
    24    19    24   ar
    25    20    21   ar
    26    27    28    1
    27    27    26    1
    28    28    31    1
    29    28    29    1
    30    32    33    1
    31    32    24    1
    32    24    23   ar
    33    26    31    1
    34    21    22   ar
    35    23    22   ar
