@<TRIPOS>MOLECULE
L3024_0_out.pdbqt
 33 35 0 0 0
SMALL
GASTEIGER

@<TRIPOS>ATOM
      1 C27         7.4820  -20.0480   -9.7600 C.ar    1  MOL1       -0.0240
      2 C28         8.2080  -20.9420  -10.5680 C.ar    1  MOL1       -0.0570
      3 C29         7.6070  -22.1120  -11.0460 C.ar    1  MOL1       -0.0610
      4 C30         6.2780  -22.4000  -10.7220 C.ar    1  MOL1       -0.0480
      5 C31         5.5440  -21.5170   -9.9220 C.ar    1  MOL1        0.0180
      6 Br32        3.7190  -21.9020   -9.4970 Br      1  MOL1       -0.0510
      7 C33         6.1430  -20.3500   -9.4380 C.ar    1  MOL1       -0.0430
      8  C6         8.1610  -18.8220   -9.1880 C.3     1  MOL1        0.0630
      9  C5         7.7600  -17.5730   -9.9930 C.3     1  MOL1        0.0510
     10  C1         5.3050  -16.3150   -7.2420 C.3     1  MOL1        0.0060
     11  N2         6.3570  -17.0470   -7.9330 N.am    1  MOL1       -0.3590
     12  C3         6.6620  -16.8090   -9.3120 C.2     1  MOL1        0.2220
     13  O4         6.0090  -15.9490   -9.9640 O.2     1  MOL1       -0.2750
     14  N7         9.6180  -18.9970   -9.1990 N.am    1  MOL1       -0.3460
     15  C8        10.3310  -19.5700   -8.1010 C.2     1  MOL1        0.2580
     16  O9         9.7150  -19.9400   -7.0670 O.2     1  MOL1       -0.2710
     17 C10        11.8180  -19.7500   -8.1740 C.3     1  MOL1        0.1670
     18 O11        12.3710  -19.8700   -6.8660 O.3     1  MOL1       -0.4800
     19 C12        13.7130  -20.1980   -6.6560 C.ar    1  MOL1        0.1660
     20 C13        14.6930  -19.1940   -6.4810 C.ar    1  MOL1        0.0120
     21 C21        16.0160  -19.5690   -6.1940 C.ar    1  MOL1       -0.0540
     22 C22        16.3710  -20.9160   -6.1280 C.ar    1  MOL1       -0.0580
     23 C23        15.4130  -21.9060   -6.3500 C.ar    1  MOL1       -0.0160
     24 C24        14.0770  -21.5540   -6.6200 C.ar    1  MOL1        0.1610
     25 C14        14.3560  -17.7230   -6.5980 C.3     1  MOL1        0.0280
     26 N15        15.5700  -16.9380   -6.9000 N.3     1  MOL1       -0.2870
     27 C16        15.5110  -15.5960   -6.2970 C.3     1  MOL1        0.0640
     28 C17        15.4600  -14.9110   -7.6480 C.3     1  MOL1        0.2720
     29 F18        16.5840  -14.1560   -7.9320 F       1  MOL1       -0.2040
     30 F19        14.2650  -14.2540   -7.8960 F       1  MOL1       -0.2040
     31 C20        15.5090  -16.3100   -8.2310 C.3     1  MOL1        0.0640
     32 O25        13.0850  -22.5180   -6.8500 O.3     1  MOL1       -0.4930
     33 C26        13.3360  -23.8340   -7.3300 C.3     1  MOL1        0.0780
@<TRIPOS>BOND
     1     3     4   ar
     2     3     2   ar
     3     4     5   ar
     4     2     1   ar
     5     9    12    1
     6     9     8    1
     7    13    12    2
     8     5     6    1
     9     5     7   ar
    10     1     7   ar
    11     1     8    1
    12    12    11   am
    13    14     8    1
    14    14    15   am
    15    31    28    1
    16    31    26    1
    17    17    15    1
    18    17    18    1
    19    15    16    2
    20    11    10    1
    21    29    28    1
    22    30    28    1
    23    28    27    1
    24    33    32    1
    25    26    25    1
    26    26    27    1
    27    18    19    1
    28    32    24    1
    29    19    24   ar
    30    19    20   ar
    31    24    23   ar
    32    25    20    1
    33    20    21   ar
    34    23    22   ar
    35    21    22   ar
