@<TRIPOS>MOLECULE
L3024_0_out.pdbqt
 33 35 0 0 0
SMALL
GASTEIGER

@<TRIPOS>ATOM
      1 C27         0.2150  -21.8120   -8.6020 C.ar    1  MOL1       -0.0240
      2 C28         0.1360  -22.8870   -7.6980 C.ar    1  MOL1       -0.0570
      3 C29        -0.8670  -22.9190   -6.7230 C.ar    1  MOL1       -0.0610
      4 C30        -1.7990  -21.8810   -6.6400 C.ar    1  MOL1       -0.0480
      5 C31        -1.7340  -20.8080   -7.5350 C.ar    1  MOL1        0.0180
      6 Br32       -3.0230  -19.3980   -7.4350 Br      1  MOL1       -0.0510
      7 C33        -0.7290  -20.7690   -8.5080 C.ar    1  MOL1       -0.0430
      8  C6         1.3450  -21.7480   -9.6060 C.3     1  MOL1        0.0630
      9  C5         1.3940  -23.0480  -10.4290 C.3     1  MOL1        0.0510
     10  C1        -1.6370  -22.3600  -12.7770 C.3     1  MOL1        0.0060
     11  N2        -0.4180  -22.1900  -12.0000 N.am    1  MOL1       -0.3590
     12  C3         0.1290  -23.2520  -11.2110 C.2     1  MOL1        0.2220
     13  O4        -0.4500  -24.3720  -11.1710 O.2     1  MOL1       -0.2750
     14  N7         2.6220  -21.5230   -8.9200 N.am    1  MOL1       -0.3460
     15  C8         3.8840  -21.7940   -9.5350 C.2     1  MOL1        0.2580
     16  O9         3.9340  -22.2540  -10.7060 O.2     1  MOL1       -0.2710
     17 C10         5.1610  -21.5210   -8.7980 C.3     1  MOL1        0.1670
     18 O11         6.1700  -21.0710   -9.6980 O.3     1  MOL1       -0.4800
     19 C12         7.3960  -20.5730   -9.2480 C.ar    1  MOL1        0.1660
     20 C13         7.5210  -19.2410   -8.7910 C.ar    1  MOL1        0.0120
     21 C21         8.7530  -18.8070   -8.2750 C.ar    1  MOL1       -0.0540
     22 C22         9.8540  -19.6630   -8.2560 C.ar    1  MOL1       -0.0580
     23 C23         9.7420  -20.9610   -8.7540 C.ar    1  MOL1       -0.0160
     24 C24         8.5130  -21.4250   -9.2580 C.ar    1  MOL1        0.1610
     25 C14         6.3640  -18.2680   -8.8450 C.3     1  MOL1        0.0280
     26 N15         6.1110  -17.6930   -7.5080 N.3     1  MOL1       -0.2870
     27 C16         4.6700  -17.5300   -7.2520 C.3     1  MOL1        0.0640
     28 C17         4.7720  -16.0180   -7.2230 C.3     1  MOL1        0.2720
     29 F18         4.5160  -15.4680   -5.9790 F       1  MOL1       -0.2040
     30 F19         4.1000  -15.3930   -8.2610 F       1  MOL1       -0.2040
     31 C20         6.2480  -16.2270   -7.4990 C.3     1  MOL1        0.0640
     32 O25         8.3580  -22.7220   -9.7690 O.3     1  MOL1       -0.4930
     33 C26         9.3710  -23.4390  -10.4660 C.3     1  MOL1        0.0780
@<TRIPOS>BOND
     1    10    11    1
     2    11    12   am
     3    12    13    2
     4    12     9    1
     5    16    15    2
     6    33    32    1
     7     9     8    1
     8    32    24    1
     9    18    19    1
    10    18    17    1
    11     8    14    1
    12     8     1    1
    13    15    14   am
    14    15    17    1
    15    24    19   ar
    16    24    23   ar
    17    19    20   ar
    18    25    20    1
    19    25    26    1
    20    20    21   ar
    21    23    22   ar
    22     1     7   ar
    23     1     2   ar
    24     7     5   ar
    25    21    22   ar
    26    30    28    1
    27     2     3   ar
    28     5     6    1
    29     5     4   ar
    30    26    31    1
    31    26    27    1
    32    31    28    1
    33    27    28    1
    34    28    29    1
    35     3     4   ar
