@<TRIPOS>MOLECULE
L3024_0_out.pdbqt
 33 35 0 0 0
SMALL
GASTEIGER

@<TRIPOS>ATOM
      1 C27         7.1560  -19.1000  -10.0960 C.ar    1  MOL1       -0.0240
      2 C28         7.0900  -20.0170  -11.1610 C.ar    1  MOL1       -0.0570
      3 C29         6.3170  -21.1780  -11.0470 C.ar    1  MOL1       -0.0610
      4 C30         5.6050  -21.4350   -9.8730 C.ar    1  MOL1       -0.0480
      5 C31         5.6600  -20.5300   -8.8070 C.ar    1  MOL1        0.0180
      6 Br32        4.6680  -20.8710   -7.2080 Br      1  MOL1       -0.0510
      7 C33         6.4350  -19.3700   -8.9150 C.ar    1  MOL1       -0.0430
      8  C6         8.0510  -17.8840  -10.1990 C.3     1  MOL1        0.0630
      9  C5         9.1180  -17.9190   -9.0900 C.3     1  MOL1        0.0510
     10  C1        12.9740  -18.4160   -9.3310 C.3     1  MOL1        0.0060
     11  N2        11.6440  -18.1060   -8.8260 N.am    1  MOL1       -0.3590
     12  C3        10.4770  -18.2360   -9.6440 C.2     1  MOL1        0.2220
     13  O4        10.5830  -18.6240  -10.8400 O.2     1  MOL1       -0.2750
     14  N7         7.2520  -16.6570  -10.1080 N.am    1  MOL1       -0.3460
     15  C8         6.5950  -16.0810  -11.2390 C.2     1  MOL1        0.2580
     16  O9         6.6940  -16.6200  -12.3740 O.2     1  MOL1       -0.2710
     17 C10         5.7690  -14.8390  -11.0860 C.3     1  MOL1        0.1670
     18 O11         4.4990  -15.0040  -11.7120 O.3     1  MOL1       -0.4800
     19 C12         3.5020  -14.0280  -11.6340 C.ar    1  MOL1        0.1660
     20 C13         2.5440  -14.0440  -10.5940 C.ar    1  MOL1        0.0120
     21 C21         1.6090  -12.9990  -10.5080 C.ar    1  MOL1       -0.0540
     22 C22         1.5920  -11.9840  -11.4640 C.ar    1  MOL1       -0.0580
     23 C23         2.5050  -11.9980  -12.5180 C.ar    1  MOL1       -0.0160
     24 C24         3.4650  -13.0230  -12.6140 C.ar    1  MOL1        0.1610
     25 C14         2.4980  -15.1560   -9.5700 C.3     1  MOL1        0.0280
     26 N15         2.9930  -14.6760   -8.2640 N.3     1  MOL1       -0.2870
     27 C16         4.3290  -15.2160   -7.9590 C.3     1  MOL1        0.0640
     28 C17         3.8130  -16.0290   -6.7880 C.3     1  MOL1        0.2720
     29 F18         4.2890  -15.6000   -5.5610 F       1  MOL1       -0.2040
     30 F19         3.9050  -17.3990   -6.9770 F       1  MOL1       -0.2040
     31 C20         2.4530  -15.4620   -7.1410 C.3     1  MOL1        0.0640
     32 O25         4.4000  -13.0740  -13.6580 O.3     1  MOL1       -0.4930
     33 C26         4.7860  -11.9550  -14.4490 C.3     1  MOL1        0.0780
@<TRIPOS>BOND
     1    33    32    1
     2    32    24    1
     3    24    23   ar
     4    24    19   ar
     5    23    22   ar
     6    16    15    2
     7    18    19    1
     8    18    17    1
     9    19    20   ar
    10    22    21   ar
    11    15    17    1
    12    15    14   am
    13     2     3   ar
    14     2     1   ar
    15     3     4   ar
    16    13    12    2
    17    20    21   ar
    18    20    25    1
    19     8    14    1
    20     8     1    1
    21     8     9    1
    22     1     7   ar
    23     4     5   ar
    24    12     9    1
    25    12    11   am
    26    25    26    1
    27    10    11    1
    28     7     5   ar
    29     5     6    1
    30    26    27    1
    31    26    31    1
    32    27    28    1
    33    31    28    1
    34    30    28    1
    35    28    29    1
