@<TRIPOS>MOLECULE
L3024_0_out.pdbqt
 33 35 0 0 0
SMALL
GASTEIGER

@<TRIPOS>ATOM
      1 C27         6.7880  -17.1650  -10.0010 C.ar    1  MOL1       -0.0240
      2 C28         7.2630  -18.0010  -11.0280 C.ar    1  MOL1       -0.0570
      3 C29         7.1160  -17.6280  -12.3680 C.ar    1  MOL1       -0.0610
      4 C30         6.4940  -16.4200  -12.6960 C.ar    1  MOL1       -0.0480
      5 C31         6.0200  -15.5780  -11.6840 C.ar    1  MOL1        0.0180
      6 Br32        5.1880  -13.9150  -12.1330 Br      1  MOL1       -0.0510
      7 C33         6.1600  -15.9500  -10.3430 C.ar    1  MOL1       -0.0430
      8  C6         6.8850  -17.6090   -8.5570 C.3     1  MOL1        0.0630
      9  C5         6.3950  -16.4860   -7.6260 C.3     1  MOL1        0.0510
     10  C1         2.6370  -15.6210   -7.0770 C.3     1  MOL1        0.0060
     11  N2         4.0570  -15.5060   -7.3720 N.am    1  MOL1       -0.3590
     12  C3         4.9360  -16.6350   -7.3050 C.2     1  MOL1        0.2220
     13  O4         4.4870  -17.7670   -6.9770 O.2     1  MOL1       -0.2750
     14  N7         8.2660  -17.9820   -8.2330 N.am    1  MOL1       -0.3460
     15  C8         9.3050  -17.0160   -8.0660 C.2     1  MOL1        0.2580
     16  O9         9.0600  -15.7880   -8.2060 O.2     1  MOL1       -0.2710
     17 C10        10.6950  -17.4510   -7.7080 C.3     1  MOL1        0.1670
     18 O11        11.1940  -18.3730   -8.6740 O.3     1  MOL1       -0.4800
     19 C12        11.5490  -19.6810   -8.3360 C.ar    1  MOL1        0.1660
     20 C13        10.7610  -20.7820   -8.7430 C.ar    1  MOL1        0.0120
     21 C21        11.1980  -22.0840   -8.4490 C.ar    1  MOL1       -0.0540
     22 C22        12.3700  -22.2900   -7.7210 C.ar    1  MOL1       -0.0580
     23 C23        13.1200  -21.2010   -7.2770 C.ar    1  MOL1       -0.0160
     24 C24        12.7130  -19.8880   -7.5770 C.ar    1  MOL1        0.1610
     25 C14         9.4570  -20.5960   -9.4870 C.3     1  MOL1        0.0280
     26 N15         8.7060  -21.8670   -9.5370 N.3     1  MOL1       -0.2870
     27 C16         8.4950  -22.3180  -10.9230 C.3     1  MOL1        0.0640
     28 C17         6.9940  -22.1290  -10.8340 C.3     1  MOL1        0.2720
     29 F18         6.2800  -23.3130  -10.9000 F       1  MOL1       -0.2040
     30 F19         6.5070  -21.1320  -11.6640 F       1  MOL1       -0.2040
     31 C20         7.2530  -21.6580   -9.4160 C.3     1  MOL1        0.0640
     32 O25        13.4370  -18.7660   -7.1480 O.3     1  MOL1       -0.4930
     33 C26        14.5400  -18.2030   -7.8500 C.3     1  MOL1        0.0780
@<TRIPOS>BOND
     1     4     3   ar
     2     4     5   ar
     3     3     2   ar
     4     6     5    1
     5     5     7   ar
     6    30    28    1
     7     2     1   ar
     8    27    28    1
     9    27    26    1
    10    29    28    1
    11    28    31    1
    12     7     1   ar
    13     1     8    1
    14    26    25    1
    15    26    31    1
    16    25    20    1
    17    20    21   ar
    18    20    19   ar
    19    18    19    1
    20    18    17    1
    21     8    14    1
    22     8     9    1
    23    21    22   ar
    24    19    24   ar
    25    14    15   am
    26    16    15    2
    27    15    17    1
    28    33    32    1
    29    22    23   ar
    30     9    12    1
    31    24    23   ar
    32    24    32    1
    33    11    12   am
    34    11    10    1
    35    12    13    2
