@<TRIPOS>MOLECULE
L3024_0_out.pdbqt
 33 35 0 0 0
SMALL
GASTEIGER

@<TRIPOS>ATOM
      1 C27         5.8650  -20.8300   -8.5520 C.ar    1  MOL1       -0.0240
      2 C28         5.5620  -20.8890   -7.1790 C.ar    1  MOL1       -0.0570
      3 C29         4.3530  -21.4450   -6.7450 C.ar    1  MOL1       -0.0610
      4 C30         3.4370  -21.9450   -7.6740 C.ar    1  MOL1       -0.0480
      5 C31         3.7270  -21.8940   -9.0420 C.ar    1  MOL1        0.0180
      6 Br32        2.4820  -22.5980  -10.3120 Br      1  MOL1       -0.0510
      7 C33         4.9320  -21.3350   -9.4810 C.ar    1  MOL1       -0.0430
      8  C6         7.1410  -20.1620   -9.0170 C.3     1  MOL1        0.0630
      9  C5         7.3890  -20.4780  -10.5030 C.3     1  MOL1        0.0510
     10  C1        10.6830  -18.8250  -11.7660 C.3     1  MOL1        0.0060
     11  N2         9.7420  -19.7570  -11.1610 N.am    1  MOL1       -0.3590
     12  C3         8.3350  -19.4920  -11.1250 C.2     1  MOL1        0.2220
     13  O4         7.8800  -18.4240  -11.6190 O.2     1  MOL1       -0.2750
     14  N7         8.2740  -20.6050   -8.1990 N.am    1  MOL1       -0.3460
     15  C8         9.2890  -19.7090   -7.7400 C.2     1  MOL1        0.2580
     16  O9         9.2410  -18.4880   -8.0420 O.2     1  MOL1       -0.2710
     17 C10        10.4120  -20.2110   -6.8830 C.3     1  MOL1        0.1670
     18 O11        11.5580  -20.4990   -7.6810 O.3     1  MOL1       -0.4800
     19 C12        12.7970  -20.8110   -7.1140 C.ar    1  MOL1        0.1660
     20 C13        13.1570  -22.1490   -6.8340 C.ar    1  MOL1        0.0120
     21 C21        14.4420  -22.4230   -6.3390 C.ar    1  MOL1       -0.0540
     22 C22        15.3380  -21.3850   -6.0790 C.ar    1  MOL1       -0.0580
     23 C23        14.9620  -20.0620   -6.3090 C.ar    1  MOL1       -0.0160
     24 C24        13.6870  -19.7640   -6.8240 C.ar    1  MOL1        0.1610
     25 C14        12.1940  -23.2950   -7.0520 C.3     1  MOL1        0.0280
     26 N15        12.1860  -23.6990   -8.4730 N.3     1  MOL1       -0.2870
     27 C16        10.8470  -23.5570   -9.0690 C.3     1  MOL1        0.0640
     28 C17        10.6960  -25.0530   -9.2650 C.3     1  MOL1        0.2720
     29 F18        10.6670  -25.4390  -10.5940 F       1  MOL1       -0.2040
     30 F19         9.6930  -25.6170   -8.4950 F       1  MOL1       -0.2040
     31 C20        12.0710  -25.1580   -8.6350 C.3     1  MOL1        0.0640
     32 O25        13.2710  -18.4470   -7.0680 O.3     1  MOL1       -0.4930
     33 C26        14.1520  -17.3500   -7.2850 C.3     1  MOL1        0.0780
@<TRIPOS>BOND
     1    10    11    1
     2    13    12    2
     3    11    12   am
     4    12     9    1
     5    29    28    1
     6     9     8    1
     7     6     5    1
     8     7     5   ar
     9     7     1   ar
    10    28    27    1
    11    28    31    1
    12    28    30    1
    13    27    26    1
    14     5     4   ar
    15     8     1    1
    16     8    14    1
    17    31    26    1
    18     1     2   ar
    19    26    25    1
    20    14    15   am
    21    16    15    2
    22    15    17    1
    23    18    19    1
    24    18    17    1
    25     4     3   ar
    26    33    32    1
    27     2     3   ar
    28    19    20   ar
    29    19    24   ar
    30    32    24    1
    31    25    20    1
    32    20    21   ar
    33    24    23   ar
    34    21    22   ar
    35    23    22   ar
