@<TRIPOS>MOLECULE
L3024_0_out.pdbqt
 33 35 0 0 0
SMALL
GASTEIGER

@<TRIPOS>ATOM
      1 C27         7.1770  -19.4480  -10.2940 C.ar    1  MOL1       -0.0240
      2 C28         7.0700  -20.5170  -11.2020 C.ar    1  MOL1       -0.0570
      3 C29         6.3210  -21.6520  -10.8740 C.ar    1  MOL1       -0.0610
      4 C30         5.6740  -21.7320   -9.6380 C.ar    1  MOL1       -0.0480
      5 C31         5.7700  -20.6740   -8.7260 C.ar    1  MOL1        0.0180
      6 Br32        4.8660  -20.7750   -7.0430 Br      1  MOL1       -0.0510
      7 C33         6.5220  -19.5400   -9.0490 C.ar    1  MOL1       -0.0430
      8  C6         8.0480  -18.2560  -10.6270 C.3     1  MOL1        0.0630
      9  C5         7.8170  -17.8260  -12.0870 C.3     1  MOL1        0.0510
     10  C1         5.5510  -14.8120  -11.1120 C.3     1  MOL1        0.0060
     11  N2         6.5200  -15.8960  -11.0480 N.am    1  MOL1       -0.3590
     12  C3         6.8040  -16.7220  -12.1820 C.2     1  MOL1        0.2220
     13  O4         6.2050  -16.5240  -13.2740 O.2     1  MOL1       -0.2750
     14  N7         9.4610  -18.5800  -10.4010 N.am    1  MOL1       -0.3460
     15  C8        10.2330  -17.9700   -9.3650 C.2     1  MOL1        0.2580
     16  O9         9.7120  -17.1100   -8.6060 O.2     1  MOL1       -0.2710
     17 C10        11.6680  -18.3560   -9.1610 C.3     1  MOL1        0.1670
     18 O11        12.0220  -18.2500   -7.7840 O.3     1  MOL1       -0.4800
     19 C12        12.9540  -19.1050   -7.1900 C.ar    1  MOL1        0.1660
     20 C13        14.2810  -18.6840   -6.9460 C.ar    1  MOL1        0.0120
     21 C21        15.1620  -19.5480   -6.2750 C.ar    1  MOL1       -0.0540
     22 C22        14.7500  -20.8260   -5.8970 C.ar    1  MOL1       -0.0580
     23 C23        13.4550  -21.2580   -6.1830 C.ar    1  MOL1       -0.0160
     24 C24        12.5480  -20.4020   -6.8360 C.ar    1  MOL1        0.1610
     25 C14        14.7810  -17.3260   -7.3890 C.3     1  MOL1        0.0280
     26 N15        15.9390  -16.9110   -6.5730 N.3     1  MOL1       -0.2870
     27 C16        15.8000  -15.5220   -6.1030 C.3     1  MOL1        0.0640
     28 C17        16.9770  -15.0470   -6.9310 C.3     1  MOL1        0.2720
     29 F18        18.0600  -14.6350   -6.1740 F       1  MOL1       -0.2040
     30 F19        16.6280  -14.1620   -7.9390 F       1  MOL1       -0.2040
     31 C20        17.0790  -16.4840   -7.4020 C.3     1  MOL1        0.0640
     32 O25        11.2380  -20.7980   -7.1440 O.3     1  MOL1       -0.4930
     33 C26        10.8730  -21.5490   -8.2970 C.3     1  MOL1        0.0780
@<TRIPOS>BOND
     1    13    12    2
     2    12     9    1
     3    12    11   am
     4     9     8    1
     5     2     3   ar
     6     2     1   ar
     7    10    11    1
     8     3     4   ar
     9     8    14    1
    10     8     1    1
    11    14    15   am
    12     1     7   ar
    13     4     5   ar
    14    15    17    1
    15    15    16    2
    16    17    18    1
    17     7     5   ar
    18     5     6    1
    19    33    32    1
    20    30    28    1
    21    18    19    1
    22    31    28    1
    23    31    26    1
    24    25    20    1
    25    25    26    1
    26    19    20   ar
    27    19    24   ar
    28    32    24    1
    29    20    21   ar
    30    28    29    1
    31    28    27    1
    32    24    23   ar
    33    26    27    1
    34    21    22   ar
    35    23    22   ar
