@<TRIPOS>MOLECULE
L3024_0_out.pdbqt
 33 35 0 0 0
SMALL
GASTEIGER

@<TRIPOS>ATOM
      1 C27        16.3160  -19.1320   -4.6190 C.ar    1  MOL1       -0.0240
      2 C28        15.0230  -19.6540   -4.4310 C.ar    1  MOL1       -0.0570
      3 C29        14.5940  -20.7620   -5.1700 C.ar    1  MOL1       -0.0610
      4 C30        15.4490  -21.3580   -6.1010 C.ar    1  MOL1       -0.0480
      5 C31        16.7380  -20.8500   -6.2950 C.ar    1  MOL1        0.0180
      6 Br32       17.9150  -21.6800   -7.5540 Br      1  MOL1       -0.0510
      7 C33        17.1690  -19.7400   -5.5620 C.ar    1  MOL1       -0.0430
      8  C6        16.7460  -17.8890   -3.8690 C.3     1  MOL1        0.0630
      9  C5        15.9580  -17.7680   -2.5520 C.3     1  MOL1        0.0510
     10  C1        14.6660  -14.2140   -1.6180 C.3     1  MOL1        0.0060
     11  N2        14.7250  -15.5860   -2.1030 N.am    1  MOL1       -0.3590
     12  C3        15.9330  -16.3520   -2.0540 C.2     1  MOL1        0.2220
     13  O4        16.9880  -15.8420   -1.5870 O.2     1  MOL1       -0.2750
     14  N7        16.5460  -16.6980   -4.7020 N.am    1  MOL1       -0.3460
     15  C8        17.5910  -16.1300   -5.4940 C.2     1  MOL1        0.2580
     16  O9        18.7410  -16.6430   -5.4910 O.2     1  MOL1       -0.2710
     17 C10        17.3250  -14.9270   -6.3480 C.3     1  MOL1        0.1670
     18 O11        17.0100  -15.3210   -7.6820 O.3     1  MOL1       -0.4800
     19 C12        16.0360  -16.2840   -7.9590 C.ar    1  MOL1        0.1660
     20 C13        16.3870  -17.5480   -8.4850 C.ar    1  MOL1        0.0120
     21 C21        15.3840  -18.5140   -8.6750 C.ar    1  MOL1       -0.0540
     22 C22        14.0510  -18.2150   -8.3940 C.ar    1  MOL1       -0.0580
     23 C23        13.7010  -16.9490   -7.9230 C.ar    1  MOL1       -0.0160
     24 C24        14.6900  -15.9720   -7.7060 C.ar    1  MOL1        0.1610
     25 C14        17.8140  -17.8900   -8.8510 C.3     1  MOL1        0.0280
     26 N15        17.8770  -18.4490  -10.2170 N.3     1  MOL1       -0.2870
     27 C16        19.1930  -19.0470  -10.4980 C.3     1  MOL1        0.0640
     28 C17        19.5200  -18.0110  -11.5540 C.3     1  MOL1        0.2720
     29 F18        19.6020  -18.5280  -12.8350 F       1  MOL1       -0.2040
     30 F19        20.5800  -17.1840  -11.2150 F       1  MOL1       -0.2040
     31 C20        18.1650  -17.4160  -11.2270 C.3     1  MOL1        0.0640
     32 O25        14.3790  -14.6890   -7.2350 O.3     1  MOL1       -0.4930
     33 C26        13.6410  -14.4240   -6.0470 C.3     1  MOL1        0.0780
@<TRIPOS>BOND
     1    29    28    1
     2    28    31    1
     3    28    30    1
     4    28    27    1
     5    31    26    1
     6    27    26    1
     7    26    25    1
     8    25    20    1
     9    21    20   ar
    10    21    22   ar
    11    20    19   ar
    12    22    23   ar
    13    19    24   ar
    14    19    18    1
    15    23    24   ar
    16    24    32    1
    17    18    17    1
    18     6     5    1
    19    32    33    1
    20    17    15    1
    21     5     4   ar
    22     5     7   ar
    23     4     3   ar
    24     7     1   ar
    25    15    16    2
    26    15    14   am
    27     3     2   ar
    28    14     8    1
    29     1     2   ar
    30     1     8    1
    31     8     9    1
    32     9    12    1
    33    11    12   am
    34    11    10    1
    35    12    13    2
