@<TRIPOS>MOLECULE
L3024_0_out.pdbqt
 33 35 0 0 0
SMALL
GASTEIGER

@<TRIPOS>ATOM
      1 C27         7.3810  -17.1280   -9.6810 C.ar    1  MOL1       -0.0240
      2 C28         6.8940  -17.3290   -8.3770 C.ar    1  MOL1       -0.0570
      3 C29         5.7530  -16.6510   -7.9350 C.ar    1  MOL1       -0.0610
      4 C30         5.0870  -15.7680   -8.7890 C.ar    1  MOL1       -0.0480
      5 C31         5.5580  -15.5610  -10.0900 C.ar    1  MOL1        0.0180
      6 Br32        4.6340  -14.3680  -11.2660 Br      1  MOL1       -0.0510
      7 C33         6.7020  -16.2330  -10.5340 C.ar    1  MOL1       -0.0430
      8  C6         8.6570  -17.8080  -10.1270 C.3     1  MOL1        0.0630
      9  C5         8.3480  -18.8380  -11.2290 C.3     1  MOL1        0.0510
     10  C1         8.4550  -22.5150   -9.9500 C.3     1  MOL1        0.0060
     11  N2         8.8440  -21.2330  -10.5180 N.am    1  MOL1       -0.3590
     12  C3         7.9140  -20.1520  -10.6490 C.2     1  MOL1        0.2220
     13  O4         6.7190  -20.2980  -10.2720 O.2     1  MOL1       -0.2750
     14  N7         9.3130  -18.4550   -8.9860 N.am    1  MOL1       -0.3460
     15  C8        10.7160  -18.3390   -8.7380 C.2     1  MOL1        0.2580
     16  O9        11.4460  -17.6710   -9.5180 O.2     1  MOL1       -0.2710
     17 C10        11.3320  -18.9990   -7.5410 C.3     1  MOL1        0.1670
     18 O11        12.3470  -19.9160   -7.9440 O.3     1  MOL1       -0.4800
     19 C12        13.4670  -20.1770   -7.1510 C.ar    1  MOL1        0.1660
     20 C13        14.3280  -19.1350   -6.7360 C.ar    1  MOL1        0.0120
     21 C21        15.3970  -19.4320   -5.8750 C.ar    1  MOL1       -0.0540
     22 C22        15.6380  -20.7450   -5.4710 C.ar    1  MOL1       -0.0580
     23 C23        14.8170  -21.7790   -5.9220 C.ar    1  MOL1       -0.0160
     24 C24        13.7280  -21.5030   -6.7690 C.ar    1  MOL1        0.1610
     25 C14        14.1300  -17.7070   -7.1960 C.3     1  MOL1        0.0280
     26 N15        15.3840  -16.9400   -7.0480 N.3     1  MOL1       -0.2870
     27 C16        15.1330  -15.5940   -6.5050 C.3     1  MOL1        0.0640
     28 C17        15.5740  -14.9150   -7.7860 C.3     1  MOL1        0.2720
     29 F18        16.7360  -14.1750   -7.6520 F       1  MOL1       -0.2040
     30 F19        14.5540  -14.2430   -8.4400 F       1  MOL1       -0.2040
     31 C20        15.8070  -16.3170   -8.3140 C.3     1  MOL1        0.0640
     32 O25        12.8800  -22.5130   -7.2460 O.3     1  MOL1       -0.4930
     33 C26        13.1370  -23.9080   -7.1170 C.3     1  MOL1        0.0780
@<TRIPOS>BOND
     1     6     5    1
     2     9    12    1
     3     9     8    1
     4    12    11   am
     5    12    13    2
     6     7     5   ar
     7     7     1   ar
     8    11    10    1
     9     8     1    1
    10     8    14    1
    11     5     4   ar
    12     1     2   ar
    13    16    15    2
    14    14    15   am
    15     4     3   ar
    16    15    17    1
    17    30    28    1
    18     2     3   ar
    19    31    28    1
    20    31    26    1
    21    18    17    1
    22    18    19    1
    23    28    29    1
    24    28    27    1
    25    32    33    1
    26    32    24    1
    27    25    26    1
    28    25    20    1
    29    19    24   ar
    30    19    20   ar
    31    26    27    1
    32    24    23   ar
    33    20    21   ar
    34    23    22   ar
    35    21    22   ar
