@<TRIPOS>MOLECULE
L3024_0_out.pdbqt
 33 35 0 0 0
SMALL
GASTEIGER

@<TRIPOS>ATOM
      1 C27         6.9600  -18.7060   -9.3540 C.ar    1  MOL1       -0.0240
      2 C28         6.0720  -18.6260   -8.2650 C.ar    1  MOL1       -0.0570
      3 C29         5.2830  -19.7270   -7.9140 C.ar    1  MOL1       -0.0610
      4 C30         5.3710  -20.9150   -8.6440 C.ar    1  MOL1       -0.0480
      5 C31         6.2530  -21.0090   -9.7270 C.ar    1  MOL1        0.0180
      6 Br32        6.3890  -22.6430  -10.7130 Br      1  MOL1       -0.0510
      7 C33         7.0400  -19.9090  -10.0850 C.ar    1  MOL1       -0.0430
      8  C6         7.7570  -17.4890   -9.7720 C.3     1  MOL1        0.0630
      9  C5         7.3210  -17.0310  -11.1760 C.3     1  MOL1        0.0510
     10  C1         4.6970  -14.3670  -12.2650 C.3     1  MOL1        0.0060
     11  N2         5.7340  -15.3880  -12.3010 N.am    1  MOL1       -0.3590
     12  C3         6.2600  -15.9720  -11.1050 C.2     1  MOL1        0.2220
     13  O4         5.8300  -15.6010   -9.9780 O.2     1  MOL1       -0.2750
     14  N7         9.1920  -17.7890   -9.7490 N.am    1  MOL1       -0.3460
     15  C8        10.0490  -17.3650   -8.6860 C.2     1  MOL1        0.2580
     16  O9         9.5850  -16.6980   -7.7230 O.2     1  MOL1       -0.2710
     17 C10        11.5060  -17.7210   -8.6990 C.3     1  MOL1        0.1670
     18 O11        11.8740  -18.3580   -7.4780 O.3     1  MOL1       -0.4800
     19 C12        12.6490  -19.5210   -7.4520 C.ar    1  MOL1        0.1660
     20 C13        14.0240  -19.4760   -7.1250 C.ar    1  MOL1        0.0120
     21 C21        14.7460  -20.6770   -7.0340 C.ar    1  MOL1       -0.0540
     22 C22        14.1290  -21.8970   -7.3100 C.ar    1  MOL1       -0.0580
     23 C23        12.7850  -21.9350   -7.6820 C.ar    1  MOL1       -0.0160
     24 C24        12.0360  -20.7460   -7.7600 C.ar    1  MOL1        0.1610
     25 C14        14.7400  -18.1680   -6.8710 C.3     1  MOL1        0.0280
     26 N15        16.0280  -18.4090   -6.1890 N.3     1  MOL1       -0.2870
     27 C16        16.3390  -17.3390   -5.2250 C.3     1  MOL1        0.0640
     28 C17        17.5370  -16.8670   -6.0250 C.3     1  MOL1        0.2720
     29 F18        18.7480  -17.0700   -5.3850 F       1  MOL1       -0.2040
     30 F19        17.3890  -15.5960   -6.5540 F       1  MOL1       -0.2040
     31 C20        17.1770  -17.9710   -7.0000 C.3     1  MOL1        0.0640
     32 O25        10.6830  -20.7400   -8.1310 O.3     1  MOL1       -0.4930
     33 C26        10.0940  -21.6630   -9.0410 C.3     1  MOL1        0.0780
@<TRIPOS>BOND
     1    11    10    1
     2    11    12   am
     3     9    12    1
     4     9     8    1
     5    12    13    2
     6     6     5    1
     7     7     5   ar
     8     7     1   ar
     9     8    14    1
    10     8     1    1
    11    14    15   am
    12     5     4   ar
    13     1     2   ar
    14    33    32    1
    15    17    15    1
    16    17    18    1
    17    15    16    2
    18     4     3   ar
    19     2     3   ar
    20    32    24    1
    21    24    23   ar
    22    24    19   ar
    23    23    22   ar
    24    18    19    1
    25    19    20   ar
    26    22    21   ar
    27    20    21   ar
    28    20    25    1
    29    31    26    1
    30    31    28    1
    31    25    26    1
    32    30    28    1
    33    26    27    1
    34    28    29    1
    35    28    27    1
