@<TRIPOS>MOLECULE
L3024_0_out.pdbqt
 33 35 0 0 0
SMALL
GASTEIGER

@<TRIPOS>ATOM
      1 C27         5.5630  -15.3470  -10.4880 C.ar    1  MOL1       -0.0240
      2 C28         6.0280  -15.1800  -11.8050 C.ar    1  MOL1       -0.0570
      3 C29         5.2520  -14.4990  -12.7490 C.ar    1  MOL1       -0.0610
      4 C30         4.0060  -13.9790  -12.3880 C.ar    1  MOL1       -0.0480
      5 C31         3.5330  -14.1350  -11.0810 C.ar    1  MOL1        0.0180
      6 Br32        1.8370  -13.4030  -10.5830 Br      1  MOL1       -0.0510
      7 C33         4.3030  -14.8200  -10.1360 C.ar    1  MOL1       -0.0430
      8  C6         6.3750  -16.1470   -9.4930 C.3     1  MOL1        0.0630
      9  C5         7.6470  -16.6930  -10.1680 C.3     1  MOL1        0.0510
     10  C1        11.0200  -17.8360   -8.5910 C.3     1  MOL1        0.0060
     11  N2         9.9230  -17.6390   -9.5270 N.am    1  MOL1       -0.3590
     12  C3         8.7570  -16.8860   -9.1760 C.2     1  MOL1        0.2220
     13  O4         8.6560  -16.3760   -8.0270 O.2     1  MOL1       -0.2750
     14  N7         5.5700  -17.2450   -8.9460 N.am    1  MOL1       -0.3460
     15  C8         5.1890  -17.3070   -7.5700 C.2     1  MOL1        0.2580
     16  O9         5.5510  -16.4040   -6.7690 O.2     1  MOL1       -0.2710
     17 C10         4.3430  -18.4380   -7.0680 C.3     1  MOL1        0.1670
     18 O11         5.0620  -19.6670   -7.1360 O.3     1  MOL1       -0.4800
     19 C12         4.9710  -20.5190   -8.2400 C.ar    1  MOL1        0.1660
     20 C13         3.7490  -21.1430   -8.5830 C.ar    1  MOL1        0.0120
     21 C21         3.6840  -21.9280   -9.7470 C.ar    1  MOL1       -0.0540
     22 C22         4.8210  -22.1300  -10.5290 C.ar    1  MOL1       -0.0580
     23 C23         6.0370  -21.5550  -10.1600 C.ar    1  MOL1       -0.0160
     24 C24         6.1220  -20.7480   -9.0100 C.ar    1  MOL1        0.1610
     25 C14         2.5090  -20.9900   -7.7310 C.3     1  MOL1        0.0280
     26 N15         1.2940  -21.1780   -8.5490 N.3     1  MOL1       -0.2870
     27 C16         0.0820  -20.7630   -7.8230 C.3     1  MOL1        0.0640
     28 C17        -0.4610  -22.1780   -7.7720 C.3     1  MOL1        0.2720
     29 F18        -1.6110  -22.3590   -8.5200 F       1  MOL1       -0.2040
     30 F19        -0.5350  -22.7010   -6.4920 F       1  MOL1       -0.2040
     31 C20         0.8060  -22.5670   -8.5090 C.3     1  MOL1        0.0640
     32 O25         7.3250  -20.1520   -8.6050 O.3     1  MOL1       -0.4930
     33 C26         8.6030  -20.7730   -8.6970 C.3     1  MOL1        0.0780
@<TRIPOS>BOND
     1     3     4   ar
     2     3     2   ar
     3     4     5   ar
     4     2     1   ar
     5     5     6    1
     6     5     7   ar
     7    22    23   ar
     8    22    21   ar
     9     1     7   ar
    10     1     8    1
    11     9     8    1
    12     9    12    1
    13    23    24   ar
    14    21    20   ar
    15    11    12   am
    16    11    10    1
    17     8    14    1
    18    12    13    2
    19    24    32    1
    20    24    19   ar
    21    14    15   am
    22    33    32    1
    23    20    19   ar
    24    20    25    1
    25    26    31    1
    26    26    27    1
    27    26    25    1
    28    29    28    1
    29    31    28    1
    30    19    18    1
    31    27    28    1
    32    28    30    1
    33    15    17    1
    34    15    16    2
    35    18    17    1
