@<TRIPOS>MOLECULE
L3024_0_out.pdbqt
 33 35 0 0 0
SMALL
GASTEIGER

@<TRIPOS>ATOM
      1 C27        14.5370  -18.7570   -6.8740 C.ar    1  MOL1       -0.0240
      2 C28        14.5440  -17.4540   -7.4040 C.ar    1  MOL1       -0.0570
      3 C29        14.9490  -16.3720   -6.6160 C.ar    1  MOL1       -0.0610
      4 C30        15.3500  -16.5790   -5.2930 C.ar    1  MOL1       -0.0480
      5 C31        15.3510  -17.8700   -4.7550 C.ar    1  MOL1        0.0180
      6 Br32       15.9220  -18.1550   -2.9510 Br      1  MOL1       -0.0510
      7 C33        14.9420  -18.9540   -5.5380 C.ar    1  MOL1       -0.0430
      8  C6        14.0290  -19.9120   -7.7100 C.3     1  MOL1        0.0630
      9  C5        15.0350  -20.2350   -8.8300 C.3     1  MOL1        0.0510
     10  C1        17.5690  -22.7040   -7.2010 C.3     1  MOL1        0.0060
     11  N2        16.3450  -22.1240   -7.7340 N.am    1  MOL1       -0.3590
     12  C3        16.3110  -20.8000   -8.2790 C.2     1  MOL1        0.2220
     13  O4        17.3600  -20.0990   -8.3010 O.2     1  MOL1       -0.2750
     14  N7        12.7140  -19.5920   -8.2730 N.am    1  MOL1       -0.3460
     15  C8        11.6490  -20.5440   -8.3310 C.2     1  MOL1        0.2580
     16  O9        11.8190  -21.7140   -7.8980 O.2     1  MOL1       -0.2710
     17 C10        10.3140  -20.1560   -8.8930 C.3     1  MOL1        0.1670
     18 O11         9.2740  -20.9050   -8.2710 O.3     1  MOL1       -0.4800
     19 C12         8.1590  -21.3570   -8.9820 C.ar    1  MOL1        0.1660
     20 C13         6.9790  -20.5830   -9.0620 C.ar    1  MOL1        0.0120
     21 C21         5.9110  -21.0390   -9.8530 C.ar    1  MOL1       -0.0540
     22 C22         5.9930  -22.2650  -10.5140 C.ar    1  MOL1       -0.0580
     23 C23         7.1390  -23.0510  -10.3930 C.ar    1  MOL1       -0.0160
     24 C24         8.2300  -22.6050   -9.6230 C.ar    1  MOL1        0.1610
     25 C14         6.8330  -19.2750   -8.3160 C.3     1  MOL1        0.0280
     26 N15         6.4940  -18.1830   -9.2510 N.3     1  MOL1       -0.2870
     27 C16         7.6290  -17.8510  -10.1300 C.3     1  MOL1        0.0640
     28 C17         7.7900  -16.4720   -9.5230 C.3     1  MOL1        0.2720
     29 F18         7.4960  -15.4410  -10.3990 F       1  MOL1       -0.2040
     30 F19         8.9810  -16.3010   -8.8360 F       1  MOL1       -0.2040
     31 C20         6.6290  -16.8550   -8.6280 C.3     1  MOL1        0.0640
     32 O25         9.3990  -23.3660   -9.4760 O.3     1  MOL1       -0.4930
     33 C26        10.2020  -23.8250  -10.5570 C.3     1  MOL1        0.0780
@<TRIPOS>BOND
     1    33    32    1
     2    22    23   ar
     3    22    21   ar
     4    29    28    1
     5    23    24   ar
     6    27    28    1
     7    27    26    1
     8    21    20   ar
     9    24    32    1
    10    24    19   ar
    11    28    30    1
    12    28    31    1
    13    26    31    1
    14    26    25    1
    15    20    19   ar
    16    20    25    1
    17    19    18    1
    18    17    15    1
    19    17    18    1
    20     9    12    1
    21     9     8    1
    22    15    14   am
    23    15    16    2
    24    13    12    2
    25    12    11   am
    26    14     8    1
    27    11    10    1
    28     8     1    1
    29     2     1   ar
    30     2     3   ar
    31     1     7   ar
    32     3     4   ar
    33     7     5   ar
    34     4     5   ar
    35     5     6    1
