@<TRIPOS>MOLECULE
L3024_0_out.pdbqt
 33 35 0 0 0
SMALL
GASTEIGER

@<TRIPOS>ATOM
      1 C27         9.3430  -18.6370   -9.4630 C.ar    1  MOL1       -0.0240
      2 C28         9.3000  -17.6770   -8.4360 C.ar    1  MOL1       -0.0570
      3 C29         8.5170  -16.5260   -8.5750 C.ar    1  MOL1       -0.0610
      4 C30         7.7700  -16.3220   -9.7390 C.ar    1  MOL1       -0.0480
      5 C31         7.8010  -17.2710  -10.7670 C.ar    1  MOL1        0.0180
      6 Br32        6.7620  -17.0020  -12.3500 Br      1  MOL1       -0.0510
      7 C33         8.5870  -18.4200  -10.6330 C.ar    1  MOL1       -0.0430
      8  C6        10.2480  -19.8430   -9.3350 C.3     1  MOL1        0.0630
      9  C5         9.4220  -21.0850   -8.9580 C.3     1  MOL1        0.0510
     10  C1        10.7230  -24.5070  -10.2890 C.3     1  MOL1        0.0060
     11  N2        10.4420  -23.3730   -9.4210 N.am    1  MOL1       -0.3590
     12  C3         9.7040  -22.2350   -9.8810 C.2     1  MOL1        0.2220
     13  O4         9.2820  -22.1940  -11.0690 O.2     1  MOL1       -0.2750
     14  N7        11.2900  -19.5920   -8.3330 N.am    1  MOL1       -0.3460
     15  C8        12.5360  -18.9720   -8.6580 C.2     1  MOL1        0.2580
     16  O9        12.7830  -18.6250   -9.8430 O.2     1  MOL1       -0.2710
     17 C10        13.5560  -18.7150   -7.5900 C.3     1  MOL1        0.1670
     18 O11        14.8520  -19.1110   -8.0320 O.3     1  MOL1       -0.4800
     19 C12        16.0010  -18.8690   -7.2730 C.ar    1  MOL1        0.1660
     20 C13        16.6150  -17.5960   -7.2630 C.ar    1  MOL1        0.0120
     21 C21        17.7210  -17.3760   -6.4250 C.ar    1  MOL1       -0.0540
     22 C22        18.2380  -18.4120   -5.6480 C.ar    1  MOL1       -0.0580
     23 C23        17.6610  -19.6810   -5.6970 C.ar    1  MOL1       -0.0160
     24 C24        16.5400  -19.9200   -6.5140 C.ar    1  MOL1        0.1610
     25 C14        16.1160  -16.4640   -8.1330 C.3     1  MOL1        0.0280
     26 N15        15.8640  -15.2590   -7.3160 N.3     1  MOL1       -0.2870
     27 C16        15.0570  -15.5710   -6.1250 C.3     1  MOL1        0.0640
     28 C17        13.8810  -14.7510   -6.6160 C.3     1  MOL1        0.2720
     29 F18        13.6240  -13.6310   -5.8450 F       1  MOL1       -0.2040
     30 F19        12.7550  -15.5060   -6.9020 F       1  MOL1       -0.2040
     31 C20        14.7370  -14.4630   -7.8330 C.3     1  MOL1        0.0640
     32 O25        15.9310  -21.1810   -6.5920 O.3     1  MOL1       -0.4930
     33 C26        16.6230  -22.3950   -6.8660 C.3     1  MOL1        0.0780
@<TRIPOS>BOND
     1     6     5    1
     2    13    12    2
     3     5     7   ar
     4     5     4   ar
     5     7     1   ar
     6    10    11    1
     7    12    11   am
     8    12     9    1
     9    16    15    2
    10     4     3   ar
    11     1     8    1
    12     1     2   ar
    13     8     9    1
    14     8    14    1
    15    15    14   am
    16    15    17    1
    17     3     2   ar
    18    25    26    1
    19    25    20    1
    20    18    17    1
    21    18    19    1
    22    31    26    1
    23    31    28    1
    24    26    27    1
    25    19    20   ar
    26    19    24   ar
    27    20    21   ar
    28    30    28    1
    29    33    32    1
    30    28    27    1
    31    28    29    1
    32    32    24    1
    33    24    23   ar
    34    21    22   ar
    35    23    22   ar
