@<TRIPOS>MOLECULE
L3024_0_out.pdbqt
 33 35 0 0 0
SMALL
GASTEIGER

@<TRIPOS>ATOM
      1 C27         9.9020  -18.5790   -8.0870 C.ar    1  MOL1       -0.0240
      2 C28         9.7440  -17.1980   -8.3020 C.ar    1  MOL1       -0.0570
      3 C29         8.4920  -16.6740   -8.6400 C.ar    1  MOL1       -0.0610
      4 C30         7.3870  -17.5200   -8.7670 C.ar    1  MOL1       -0.0480
      5 C31         7.5300  -18.8960   -8.5520 C.ar    1  MOL1        0.0180
      6 Br32        6.0130  -20.0520   -8.7040 Br      1  MOL1       -0.0510
      7 C33         8.7820  -19.4250   -8.2190 C.ar    1  MOL1       -0.0430
      8  C6        11.2740  -19.1480   -7.7940 C.3     1  MOL1        0.0630
      9  C5        11.1480  -20.3900   -6.8930 C.3     1  MOL1        0.0510
     10  C1        14.5970  -22.0840   -6.2520 C.3     1  MOL1        0.0060
     11  N2        13.4390  -21.2080   -6.1390 N.am    1  MOL1       -0.3590
     12  C3        12.3320  -21.3010   -7.0420 C.2     1  MOL1        0.2220
     13  O4        12.3430  -22.1540   -7.9710 O.2     1  MOL1       -0.2750
     14  N7        12.1200  -18.1320   -7.1580 N.am    1  MOL1       -0.3460
     15  C8        13.3920  -17.7510   -7.6850 C.2     1  MOL1        0.2580
     16  O9        13.8360  -18.2980   -8.7300 O.2     1  MOL1       -0.2710
     17 C10        14.2050  -16.6880   -7.0100 C.3     1  MOL1        0.1670
     18 O11        14.3330  -16.9660   -5.6180 O.3     1  MOL1       -0.4800
     19 C12        15.5010  -16.6780   -4.9080 C.ar    1  MOL1        0.1660
     20 C13        16.5740  -17.5980   -4.8610 C.ar    1  MOL1        0.0120
     21 C21        17.7600  -17.2340   -4.2020 C.ar    1  MOL1       -0.0540
     22 C22        17.8640  -16.0000   -3.5600 C.ar    1  MOL1       -0.0580
     23 C23        16.7860  -15.1140   -3.5650 C.ar    1  MOL1       -0.0160
     24 C24        15.5950  -15.4480   -4.2360 C.ar    1  MOL1        0.1610
     25 C14        16.4790  -18.9660   -5.4990 C.3     1  MOL1        0.0280
     26 N15        16.7760  -18.8830   -6.9440 N.3     1  MOL1       -0.2870
     27 C16        17.6010  -20.0170   -7.3930 C.3     1  MOL1        0.0640
     28 C17        18.7850  -19.1250   -7.7100 C.3     1  MOL1        0.2720
     29 F18        19.0850  -19.0570   -9.0590 F       1  MOL1       -0.2040
     30 F19        19.8870  -19.3530   -6.9010 F       1  MOL1       -0.2040
     31 C20        17.9100  -17.9850   -7.2270 C.3     1  MOL1        0.0640
     32 O25        14.4890  -14.5870   -4.2640 O.3     1  MOL1       -0.4930
     33 C26        14.2100  -13.6010   -3.2750 C.3     1  MOL1        0.0780
@<TRIPOS>BOND
     1    29    28    1
     2     4     3   ar
     3     4     5   ar
     4    16    15    2
     5     6     5    1
     6     3     2   ar
     7     5     7   ar
     8     2     1   ar
     9     7     1   ar
    10     1     8    1
    11    13    12    2
    12     8    14    1
    13     8     9    1
    14    28    27    1
    15    28    31    1
    16    28    30    1
    17    15    14   am
    18    15    17    1
    19    27    26    1
    20    31    26    1
    21    12     9    1
    22    12    11   am
    23    17    18    1
    24    26    25    1
    25    10    11    1
    26    18    19    1
    27    25    20    1
    28    19    20   ar
    29    19    24   ar
    30    20    21   ar
    31    32    24    1
    32    32    33    1
    33    24    23   ar
    34    21    22   ar
    35    23    22   ar
