@<TRIPOS>MOLECULE
L3024_0_out.pdbqt
 33 35 0 0 0
SMALL
GASTEIGER

@<TRIPOS>ATOM
      1 C27        17.4420  -17.9720   -9.3420 C.ar    1  MOL1       -0.0240
      2 C28        18.2590  -19.0650   -9.0000 C.ar    1  MOL1       -0.0570
      3 C29        19.4750  -19.2730   -9.6610 C.ar    1  MOL1       -0.0610
      4 C30        19.8860  -18.3940  -10.6660 C.ar    1  MOL1       -0.0480
      5 C31        19.0840  -17.3010  -11.0140 C.ar    1  MOL1        0.0180
      6 Br32       19.6580  -16.0860  -12.3750 Br      1  MOL1       -0.0510
      7 C33        17.8650  -17.0930  -10.3590 C.ar    1  MOL1       -0.0430
      8  C6        16.0950  -17.7960   -8.6740 C.3     1  MOL1        0.0630
      9  C5        16.1920  -16.7340   -7.5640 C.3     1  MOL1        0.0510
     10  C1        12.7270  -15.4530   -6.3280 C.3     1  MOL1        0.0060
     11  N2        13.9550  -16.2240   -6.4580 N.am    1  MOL1       -0.3590
     12  C3        14.9300  -15.9260   -7.4620 C.2     1  MOL1        0.2220
     13  O4        14.7370  -14.9770   -8.2700 O.2     1  MOL1       -0.2750
     14  N7        15.6280  -19.0740   -8.1270 N.am    1  MOL1       -0.3460
     15  C8        14.3420  -19.6170   -8.4330 C.2     1  MOL1        0.2580
     16  O9        13.5520  -18.9930   -9.1900 O.2     1  MOL1       -0.2710
     17 C10        13.9240  -20.9420   -7.8670 C.3     1  MOL1        0.1670
     18 O11        12.5410  -20.9230   -7.5230 O.3     1  MOL1       -0.4800
     19 C12        11.6050  -21.7310   -8.1730 C.ar    1  MOL1        0.1660
     20 C13        10.4330  -21.1810   -8.7410 C.ar    1  MOL1        0.0120
     21 C21         9.5580  -22.0180   -9.4530 C.ar    1  MOL1       -0.0540
     22 C22         9.8160  -23.3850   -9.5600 C.ar    1  MOL1       -0.0580
     23 C23        10.9470  -23.9340   -8.9560 C.ar    1  MOL1       -0.0160
     24 C24        11.8480  -23.1120   -8.2540 C.ar    1  MOL1        0.1610
     25 C14        10.0930  -19.7140   -8.6000 C.3     1  MOL1        0.0280
     26 N15         9.0130  -19.3420   -9.5380 N.3     1  MOL1       -0.2870
     27 C16         9.3860  -18.1790  -10.3600 C.3     1  MOL1        0.0640
     28 C17         8.3230  -17.3010   -9.7300 C.3     1  MOL1        0.2720
     29 F18         7.3180  -16.9310  -10.6070 F       1  MOL1       -0.2040
     30 F19         8.8350  -16.2500   -8.9880 F       1  MOL1       -0.2040
     31 C20         7.9770  -18.5170   -8.8940 C.3     1  MOL1        0.0640
     32 O25        12.9950  -23.6250   -7.6310 O.3     1  MOL1       -0.4930
     33 C26        13.0130  -24.2180   -6.3370 C.3     1  MOL1        0.0780
@<TRIPOS>BOND
     1     6     5    1
     2     5     4   ar
     3     5     7   ar
     4     4     3   ar
     5    29    28    1
     6    27    28    1
     7    27    26    1
     8     7     1   ar
     9    28    30    1
    10    28    31    1
    11     3     2   ar
    12    22    21   ar
    13    22    23   ar
    14    26    31    1
    15    26    25    1
    16    21    20   ar
    17     1     2   ar
    18     1     8    1
    19    16    15    2
    20    23    24   ar
    21    20    25    1
    22    20    19   ar
    23     8    14    1
    24     8     9    1
    25    15    14   am
    26    15    17    1
    27    13    12    2
    28    24    19   ar
    29    24    32    1
    30    19    18    1
    31    17    18    1
    32    32    33    1
    33     9    12    1
    34    12    11   am
    35    11    10    1
