@<TRIPOS>MOLECULE
L3024_0_out.pdbqt
 33 35 0 0 0
SMALL
GASTEIGER

@<TRIPOS>ATOM
      1 C27         9.0280  -20.4710   -8.9940 C.ar    1  MOL1       -0.0240
      2 C28         9.3120  -21.5840   -9.8060 C.ar    1  MOL1       -0.0570
      3 C29         8.3580  -22.5910   -9.9850 C.ar    1  MOL1       -0.0610
      4 C30         7.1130  -22.4980   -9.3560 C.ar    1  MOL1       -0.0480
      5 C31         6.8170  -21.3940   -8.5480 C.ar    1  MOL1        0.0180
      6 Br32        5.1050  -21.2570   -7.7050 Br      1  MOL1       -0.0510
      7 C33         7.7710  -20.3880   -8.3620 C.ar    1  MOL1       -0.0430
      8  C6        10.0920  -19.4220   -8.7470 C.3     1  MOL1        0.0630
      9  C5        10.0360  -18.3460   -9.8460 C.3     1  MOL1        0.0510
     10  C1         6.8010  -16.2410  -10.3680 C.3     1  MOL1        0.0060
     11  N2         7.8970  -17.1760  -10.5800 N.am    1  MOL1       -0.3590
     12  C3         8.9250  -17.3670   -9.6020 C.2     1  MOL1        0.2220
     13  O4         8.9010  -16.7130   -8.5240 O.2     1  MOL1       -0.2750
     14  N7        11.4190  -20.0460   -8.7010 N.am    1  MOL1       -0.3460
     15  C8        12.4780  -19.5400   -7.8860 C.2     1  MOL1        0.2580
     16  O9        12.2990  -18.5150   -7.1760 O.2     1  MOL1       -0.2710
     17 C10        13.8080  -20.2310   -7.8560 C.3     1  MOL1        0.1670
     18 O11        14.7960  -19.3860   -7.2700 O.3     1  MOL1       -0.4800
     19 C12        15.9150  -18.9490   -7.9850 C.ar    1  MOL1        0.1660
     20 C13        16.0030  -17.6220   -8.4640 C.ar    1  MOL1        0.0120
     21 C21        17.1800  -17.2020   -9.1070 C.ar    1  MOL1       -0.0540
     22 C22        18.2300  -18.0960   -9.3150 C.ar    1  MOL1       -0.0580
     23 C23        18.1210  -19.4190   -8.8860 C.ar    1  MOL1       -0.0160
     24 C24        16.9600  -19.8570   -8.2210 C.ar    1  MOL1        0.1610
     25 C14        14.8640  -16.6400   -8.3040 C.3     1  MOL1        0.0280
     26 N15        15.1590  -15.6790   -7.2220 N.3     1  MOL1       -0.2870
     27 C16        14.4420  -16.0220   -5.9820 C.3     1  MOL1        0.0640
     28 C17        13.5880  -14.7710   -6.0430 C.3     1  MOL1        0.2720
     29 F18        13.8430  -13.8740   -5.0210 F       1  MOL1       -0.2040
     30 F19        12.2410  -15.0250   -6.2440 F       1  MOL1       -0.2040
     31 C20        14.3390  -14.4590   -7.3220 C.3     1  MOL1        0.0640
     32 O25        16.8100  -21.1780   -7.7750 O.3     1  MOL1       -0.4930
     33 C26        16.5540  -22.2910   -8.6250 C.3     1  MOL1        0.0780
@<TRIPOS>BOND
     1    11    10    1
     2    11    12   am
     3     3     2   ar
     4     3     4   ar
     5     9    12    1
     6     9     8    1
     7     2     1   ar
     8    12    13    2
     9     4     5   ar
    10    22    21   ar
    11    22    23   ar
    12    21    20   ar
    13     1     8    1
    14     1     7   ar
    15    23    24   ar
    16     8    14    1
    17    14    15   am
    18    33    32    1
    19     5     7   ar
    20     5     6    1
    21    20    25    1
    22    20    19   ar
    23    25    26    1
    24    24    19   ar
    25    24    32    1
    26    19    18    1
    27    15    17    1
    28    15    16    2
    29    17    18    1
    30    31    26    1
    31    31    28    1
    32    26    27    1
    33    30    28    1
    34    28    27    1
    35    28    29    1
