@<TRIPOS>MOLECULE
L3024_0_out.pdbqt
 33 35 0 0 0
SMALL
GASTEIGER

@<TRIPOS>ATOM
      1 C27         9.0400  -18.4750   -9.5200 C.ar    1  MOL1       -0.0240
      2 C28         8.8470  -17.4800   -8.5440 C.ar    1  MOL1       -0.0570
      3 C29         8.0490  -16.3640   -8.8200 C.ar    1  MOL1       -0.0610
      4 C30         7.4360  -16.2310  -10.0690 C.ar    1  MOL1       -0.0480
      5 C31         7.6170  -17.2160  -11.0470 C.ar    1  MOL1        0.0180
      6 Br32        6.7600  -17.0430  -12.7490 Br      1  MOL1       -0.0510
      7 C33         8.4190  -18.3290  -10.7770 C.ar    1  MOL1       -0.0430
      8  C6         9.9630  -19.6410   -9.2400 C.3     1  MOL1        0.0630
      9  C5         9.2680  -20.6520   -8.3100 C.3     1  MOL1        0.0510
     10  C1         5.7220  -21.7060   -9.5300 C.3     1  MOL1        0.0060
     11  N2         6.8040  -21.0140   -8.8460 N.am    1  MOL1       -0.3590
     12  C3         8.1730  -21.3930   -9.0230 C.2     1  MOL1        0.2220
     13  O4         8.4700  -22.3540   -9.7840 O.2     1  MOL1       -0.2750
     14  N7        11.2150  -19.1660   -8.6420 N.am    1  MOL1       -0.3460
     15  C8        12.2550  -18.5610   -9.4130 C.2     1  MOL1        0.2580
     16  O9        12.1250  -18.4250  -10.6590 O.2     1  MOL1       -0.2710
     17 C10        13.5050  -18.0690   -8.7470 C.3     1  MOL1        0.1670
     18 O11        13.4020  -18.2030   -7.3310 O.3     1  MOL1       -0.4800
     19 C12        14.5250  -18.1720   -6.5000 C.ar    1  MOL1        0.1660
     20 C13        15.3710  -19.2970   -6.3730 C.ar    1  MOL1        0.0120
     21 C21        16.5330  -19.1960   -5.5880 C.ar    1  MOL1       -0.0540
     22 C22        16.8240  -18.0160   -4.9040 C.ar    1  MOL1       -0.0580
     23 C23        15.9610  -16.9230   -4.9910 C.ar    1  MOL1       -0.0160
     24 C24        14.8020  -16.9950   -5.7870 C.ar    1  MOL1        0.1610
     25 C14        15.0600  -20.6100   -7.0570 C.3     1  MOL1        0.0280
     26 N15        14.4940  -21.5740   -6.0910 N.3     1  MOL1       -0.2870
     27 C16        14.4210  -22.9310   -6.6580 C.3     1  MOL1        0.0640
     28 C17        12.9050  -22.9370   -6.6380 C.3     1  MOL1        0.2720
     29 F18        12.3650  -23.8510   -5.7510 F       1  MOL1       -0.2040
     30 F19        12.3310  -22.9710   -7.8990 F       1  MOL1       -0.2040
     31 C20        13.0210  -21.5370   -6.0680 C.3     1  MOL1        0.0640
     32 O25        13.9090  -15.9200   -5.9000 O.3     1  MOL1       -0.4930
     33 C26        14.1070  -14.7940   -6.7490 C.3     1  MOL1        0.0780
@<TRIPOS>BOND
     1     6     5    1
     2     5     7   ar
     3     5     4   ar
     4     7     1   ar
     5    16    15    2
     6     4     3   ar
     7    13    12    2
     8    10    11    1
     9     1     8    1
    10     1     2   ar
    11    15    17    1
    12    15    14   am
    13     8    14    1
    14     8     9    1
    15    12    11   am
    16    12     9    1
    17     3     2   ar
    18    17    18    1
    19    30    28    1
    20    18    19    1
    21    25    20    1
    22    25    26    1
    23    33    32    1
    24    27    28    1
    25    27    26    1
    26    28    31    1
    27    28    29    1
    28    19    20   ar
    29    19    24   ar
    30    20    21   ar
    31    26    31    1
    32    32    24    1
    33    24    23   ar
    34    21    22   ar
    35    23    22   ar
