@<TRIPOS>MOLECULE
L3024_0_out.pdbqt
 33 35 0 0 0
SMALL
GASTEIGER

@<TRIPOS>ATOM
      1 C27         5.5660  -15.7550   -9.1370 C.ar    1  MOL1       -0.0240
      2 C28         5.9830  -16.4660   -7.9980 C.ar    1  MOL1       -0.0570
      3 C29         5.1070  -16.6620   -6.9250 C.ar    1  MOL1       -0.0610
      4 C30         3.8070  -16.1500   -6.9790 C.ar    1  MOL1       -0.0480
      5 C31         3.3780  -15.4430   -8.1080 C.ar    1  MOL1        0.0180
      6 Br32        1.5930  -14.7610   -8.1900 Br      1  MOL1       -0.0510
      7 C33         4.2540  -15.2410   -9.1800 C.ar    1  MOL1       -0.0430
      8  C6         6.5420  -15.4850  -10.2610 C.3     1  MOL1        0.0630
      9  C5         5.8330  -15.6230  -11.6200 C.3     1  MOL1        0.0510
     10  C1         3.1840  -13.1270  -13.0090 C.3     1  MOL1        0.0060
     11  N2         3.8610  -14.3540  -12.6150 N.am    1  MOL1       -0.3590
     12  C3         5.1650  -14.3400  -12.0260 C.2     1  MOL1        0.2220
     13  O4         5.7640  -13.2460  -11.8390 O.2     1  MOL1       -0.2750
     14  N7         7.6810  -16.4060  -10.1770 N.am    1  MOL1       -0.3460
     15  C8         7.7990  -17.5610  -11.0110 C.2     1  MOL1        0.2580
     16  O9         6.9020  -17.8310  -11.8530 O.2     1  MOL1       -0.2710
     17 C10         8.9970  -18.4550  -10.9020 C.3     1  MOL1        0.1670
     18 O11         9.3910  -18.5990   -9.5400 O.3     1  MOL1       -0.4800
     19 C12        10.0790  -19.7250   -9.0810 C.ar    1  MOL1        0.1660
     20 C13         9.4690  -21.0010   -9.0700 C.ar    1  MOL1        0.0120
     21 C21        10.2240  -22.1180   -8.6760 C.ar    1  MOL1       -0.0540
     22 C22        11.5460  -21.9670   -8.2550 C.ar    1  MOL1       -0.0580
     23 C23        12.1300  -20.7000   -8.2190 C.ar    1  MOL1       -0.0160
     24 C24        11.3990  -19.5690   -8.6280 C.ar    1  MOL1        0.1610
     25 C14         8.0230  -21.1960   -9.4680 C.3     1  MOL1        0.0280
     26 N15         7.1240  -20.7280   -8.3930 N.3     1  MOL1       -0.2870
     27 C16         6.0940  -21.7310   -8.0740 C.3     1  MOL1        0.0640
     28 C17         4.9710  -20.8450   -8.5770 C.3     1  MOL1        0.2720
     29 F18         4.1110  -20.4180   -7.5800 F       1  MOL1       -0.2040
     30 F19         4.3280  -21.3420   -9.6980 F       1  MOL1       -0.2040
     31 C20         6.0620  -19.8440   -8.9030 C.3     1  MOL1        0.0640
     32 O25        11.9490  -18.2790   -8.6070 O.3     1  MOL1       -0.4930
     33 C26        11.9570  -17.4250   -7.4680 C.3     1  MOL1        0.0780
@<TRIPOS>BOND
     1    10    11    1
     2    11    12   am
     3    12    13    2
     4    12     9    1
     5    16    15    2
     6     9     8    1
     7    15    17    1
     8    15    14   am
     9    17    18    1
    10     8    14    1
    11     8     1    1
    12    30    28    1
    13    18    19    1
    14    25    20    1
    15    25    26    1
    16     7     1   ar
    17     7     5   ar
    18     1     2   ar
    19    19    20   ar
    20    19    24   ar
    21    20    21   ar
    22    31    28    1
    23    31    26    1
    24    21    22   ar
    25    24    32    1
    26    24    23   ar
    27    32    33    1
    28    28    27    1
    29    28    29    1
    30    26    27    1
    31    22    23   ar
    32     6     5    1
    33     5     4   ar
    34     2     3   ar
    35     4     3   ar
