@<TRIPOS>MOLECULE
L3024_0_out.pdbqt
 33 35 0 0 0
SMALL
GASTEIGER

@<TRIPOS>ATOM
      1 C27         7.0040  -19.0670  -10.0020 C.ar    1  MOL1       -0.0240
      2 C28         7.0770  -20.0030  -11.0500 C.ar    1  MOL1       -0.0570
      3 C29         6.4830  -21.2630  -10.9150 C.ar    1  MOL1       -0.0610
      4 C30         5.8130  -21.6000   -9.7360 C.ar    1  MOL1       -0.0480
      5 C31         5.7310  -20.6770   -8.6870 C.ar    1  MOL1        0.0180
      6 Br32        4.7960  -21.1320   -7.0820 Br      1  MOL1       -0.0510
      7 C33         6.3280  -19.4190   -8.8160 C.ar    1  MOL1       -0.0430
      8  C6         7.7100  -17.7340  -10.1270 C.3     1  MOL1        0.0630
      9  C5         8.5580  -17.4670   -8.8710 C.3     1  MOL1        0.0510
     10  C1        12.4120  -17.6850   -8.3510 C.3     1  MOL1        0.0060
     11  N2        11.0010  -17.3870   -8.1540 N.am    1  MOL1       -0.3590
     12  C3        10.0070  -17.7800   -9.1070 C.2     1  MOL1        0.2220
     13  O4        10.3440  -18.3970  -10.1540 O.2     1  MOL1       -0.2750
     14  N7         6.7340  -16.6590  -10.3300 N.am    1  MOL1       -0.3460
     15  C8         6.2610  -16.2840  -11.6260 C.2     1  MOL1        0.2580
     16  O9         6.6880  -16.8740  -12.6530 O.2     1  MOL1       -0.2710
     17 C10         5.2420  -15.1940  -11.7750 C.3     1  MOL1        0.1670
     18 O11         5.0360  -14.5300  -10.5300 O.3     1  MOL1       -0.4800
     19 C12         3.7800  -14.4710   -9.9200 C.ar    1  MOL1        0.1660
     20 C13         2.6850  -13.8490  -10.5600 C.ar    1  MOL1        0.0120
     21 C21         1.4220  -13.8820   -9.9450 C.ar    1  MOL1       -0.0540
     22 C22         1.2590  -14.4800   -8.6960 C.ar    1  MOL1       -0.0580
     23 C23         2.3520  -15.0500   -8.0430 C.ar    1  MOL1       -0.0160
     24 C24         3.6230  -15.0460   -8.6480 C.ar    1  MOL1        0.1610
     25 C14         2.8340  -13.1440  -11.8900 C.3     1  MOL1        0.0280
     26 N15         3.6080  -11.8960  -11.7290 N.3     1  MOL1       -0.2870
     27 C16         2.8990  -10.9260  -10.8780 C.3     1  MOL1        0.0640
     28 C17         2.7070   -9.9510  -12.0230 C.3     1  MOL1        0.2720
     29 F18         3.4120   -8.7690  -11.8700 F       1  MOL1       -0.2040
     30 F19         1.3820   -9.7710  -12.3860 F       1  MOL1       -0.2040
     31 C20         3.4300  -10.9800  -12.8690 C.3     1  MOL1        0.0640
     32 O25         4.7470  -15.6070   -8.0250 O.3     1  MOL1       -0.4930
     33 C26         4.7560  -16.1340   -6.7020 C.3     1  MOL1        0.0780
@<TRIPOS>BOND
     1    31    28    1
     2    31    26    1
     3    16    15    2
     4    30    28    1
     5    28    29    1
     6    28    27    1
     7    25    26    1
     8    25    20    1
     9    17    15    1
    10    17    18    1
    11    26    27    1
    12    15    14   am
    13     2     3   ar
    14     2     1   ar
    15     3     4   ar
    16    20    21   ar
    17    20    19   ar
    18    18    19    1
    19    14     8    1
    20    13    12    2
    21     8     1    1
    22     8     9    1
    23     1     7   ar
    24    21    22   ar
    25    19    24   ar
    26     4     5   ar
    27    12     9    1
    28    12    11   am
    29     7     5   ar
    30    22    23   ar
    31     5     6    1
    32    24    23   ar
    33    24    32    1
    34    10    11    1
    35    32    33    1
