@<TRIPOS>MOLECULE
L3024_0_out.pdbqt
 33 35 0 0 0
SMALL
GASTEIGER

@<TRIPOS>ATOM
      1 C27        14.3010  -17.1610   -7.2860 C.ar    1  MOL1       -0.0240
      2 C28        14.4730  -16.1840   -8.2840 C.ar    1  MOL1       -0.0570
      3 C29        14.4150  -14.8240   -7.9600 C.ar    1  MOL1       -0.0610
      4 C30        14.1850  -14.4260   -6.6400 C.ar    1  MOL1       -0.0480
      5 C31        14.0150  -15.3880   -5.6380 C.ar    1  MOL1        0.0180
      6 Br32       13.7210  -14.8420   -3.8280 Br      1  MOL1       -0.0510
      7 C33        14.0670  -16.7480   -5.9580 C.ar    1  MOL1       -0.0430
      8  C6        14.2930  -18.6280   -7.6560 C.3     1  MOL1        0.0630
      9  C5        14.9220  -18.8240   -9.0470 C.3     1  MOL1        0.0510
     10  C1        18.5520  -20.2370   -9.0830 C.3     1  MOL1        0.0060
     11  N2        17.4180  -19.3260   -9.1340 N.am    1  MOL1       -0.3590
     12  C3        16.0700  -19.7910   -9.0010 C.2     1  MOL1        0.2220
     13  O4        15.8380  -21.0200   -8.8400 O.2     1  MOL1       -0.2750
     14  N7        12.9230  -19.1510   -7.6300 N.am    1  MOL1       -0.3460
     15  C8        12.0470  -19.0690   -8.7570 C.2     1  MOL1        0.2580
     16  O9        12.4340  -18.5220   -9.8240 O.2     1  MOL1       -0.2710
     17 C10        10.6640  -19.6430   -8.6850 C.3     1  MOL1        0.1670
     18 O11        10.2770  -20.1700   -9.9520 O.3     1  MOL1       -0.4800
     19 C12         9.0250  -20.7560  -10.1600 C.ar    1  MOL1        0.1660
     20 C13         7.9370  -20.0000  -10.6550 C.ar    1  MOL1        0.0120
     21 C21         6.7190  -20.6460  -10.9240 C.ar    1  MOL1       -0.0540
     22 C22         6.5680  -22.0080  -10.6620 C.ar    1  MOL1       -0.0580
     23 C23         7.6270  -22.7410  -10.1260 C.ar    1  MOL1       -0.0160
     24 C24         8.8620  -22.1200   -9.8670 C.ar    1  MOL1        0.1610
     25 C14         8.0480  -18.5110  -10.9010 C.3     1  MOL1        0.0280
     26 N15         7.1440  -17.7700   -9.9970 N.3     1  MOL1       -0.2870
     27 C16         7.6300  -16.4030   -9.7480 C.3     1  MOL1        0.0640
     28 C17         7.8870  -16.6840   -8.2800 C.3     1  MOL1        0.2720
     29 F18         7.0590  -15.9780   -7.4250 F       1  MOL1       -0.2040
     30 F19         9.2270  -16.6350   -7.9310 F       1  MOL1       -0.2040
     31 C20         7.3940  -18.0850   -8.5800 C.3     1  MOL1        0.0640
     32 O25         9.9510  -22.8210   -9.3290 O.3     1  MOL1       -0.4930
     33 C26        10.4260  -24.0710   -9.8190 C.3     1  MOL1        0.0780
@<TRIPOS>BOND
     1    21    22   ar
     2    21    20   ar
     3    25    20    1
     4    25    26    1
     5    22    23   ar
     6    20    19   ar
     7    19    18    1
     8    19    24   ar
     9    23    24   ar
    10    26    27    1
    11    26    31    1
    12    18    17    1
    13    24    32    1
    14    16    15    2
    15    33    32    1
    16    27    28    1
    17    11    10    1
    18    11    12   am
    19     9    12    1
    20     9     8    1
    21    12    13    2
    22    15    17    1
    23    15    14   am
    24    31    28    1
    25     2     3   ar
    26     2     1   ar
    27    28    30    1
    28    28    29    1
    29     3     4   ar
    30     8    14    1
    31     8     1    1
    32     1     7   ar
    33     4     5   ar
    34     7     5   ar
    35     5     6    1
