@<TRIPOS>MOLECULE
L3024_0_out.pdbqt
 33 35 0 0 0
SMALL
GASTEIGER

@<TRIPOS>ATOM
      1 C27        15.3180  -18.8310   -4.8380 C.ar    1  MOL1       -0.0240
      2 C28        15.2300  -19.8420   -3.8640 C.ar    1  MOL1       -0.0570
      3 C29        15.6360  -19.5940   -2.5480 C.ar    1  MOL1       -0.0610
      4 C30        16.1330  -18.3370   -2.1930 C.ar    1  MOL1       -0.0480
      5 C31        16.2220  -17.3220   -3.1510 C.ar    1  MOL1        0.0180
      6 Br32       16.8830  -15.5950   -2.6590 Br      1  MOL1       -0.0510
      7 C33        15.8230  -17.5680   -4.4690 C.ar    1  MOL1       -0.0430
      8  C6        14.9450  -19.1290   -6.2740 C.3     1  MOL1        0.0630
      9  C5        15.2890  -17.9240   -7.1690 C.3     1  MOL1        0.0510
     10  C1        17.9100  -19.9610   -9.2070 C.3     1  MOL1        0.0060
     11  N2        16.9160  -19.5820   -8.2130 N.am    1  MOL1       -0.3590
     12  C3        16.3190  -18.2810   -8.2010 C.2     1  MOL1        0.2220
     13  O4        16.6550  -17.4230   -9.0630 O.2     1  MOL1       -0.2750
     14  N7        13.5180  -19.4550   -6.3720 N.am    1  MOL1       -0.3460
     15  C8        13.0140  -20.4380   -7.2790 C.2     1  MOL1        0.2580
     16  O9        13.7990  -21.0590   -8.0430 O.2     1  MOL1       -0.2710
     17 C10        11.5480  -20.7510   -7.3190 C.3     1  MOL1        0.1670
     18 O11        11.1060  -20.8940   -8.6670 O.3     1  MOL1       -0.4800
     19 C12         9.9350  -21.5840   -8.9940 C.ar    1  MOL1        0.1660
     20 C13         8.6770  -20.9400   -8.9690 C.ar    1  MOL1        0.0120
     21 C21         7.5360  -21.6490   -9.3810 C.ar    1  MOL1       -0.0540
     22 C22         7.6340  -22.9870   -9.7640 C.ar    1  MOL1       -0.0580
     23 C23         8.8690  -23.6350   -9.7390 C.ar    1  MOL1       -0.0160
     24 C24        10.0290  -22.9390   -9.3500 C.ar    1  MOL1        0.1610
     25 C14         8.5240  -19.5070   -8.5090 C.3     1  MOL1        0.0280
     26 N15         7.7570  -18.7260   -9.5020 N.3     1  MOL1       -0.2870
     27 C16         8.6080  -17.7410  -10.1900 C.3     1  MOL1        0.0640
     28 C17         7.8660  -16.5670   -9.5830 C.3     1  MOL1        0.2720
     29 F18         7.1610  -15.8160  -10.5080 F       1  MOL1       -0.2040
     30 F19         8.6360  -15.8090   -8.7150 F       1  MOL1       -0.2040
     31 C20         7.0200  -17.6110   -8.8820 C.3     1  MOL1        0.0640
     32 O25        11.2890  -23.5540   -9.3100 O.3     1  MOL1       -0.4930
     33 C26        11.8030  -24.2660   -8.1900 C.3     1  MOL1        0.0780
@<TRIPOS>BOND
     1    29    28    1
     2    27    28    1
     3    27    26    1
     4    22    23   ar
     5    22    21   ar
     6    23    24   ar
     7    28    31    1
     8    28    30    1
     9    26    31    1
    10    26    25    1
    11    21    20   ar
    12    24    32    1
    13    24    19   ar
    14    32    33    1
    15    10    11    1
    16    13    12    2
    17    19    20   ar
    18    19    18    1
    19    20    25    1
    20    18    17    1
    21    11    12   am
    22    12     9    1
    23    16    15    2
    24    17    15    1
    25    15    14   am
    26     9     8    1
    27    14     8    1
    28     8     1    1
    29     1     7   ar
    30     1     2   ar
    31     7     5   ar
    32     2     3   ar
    33     5     6    1
    34     5     4   ar
    35     3     4   ar
