@<TRIPOS>MOLECULE
L3024_0_out.pdbqt
 33 35 0 0 0
SMALL
GASTEIGER

@<TRIPOS>ATOM
      1 C27         8.9900  -18.9460  -10.1530 C.ar    1  MOL1       -0.0240
      2 C28         9.5890  -18.9460  -11.4250 C.ar    1  MOL1       -0.0570
      3 C29        10.9450  -18.6320  -11.5690 C.ar    1  MOL1       -0.0610
      4 C30        11.7140  -18.3150  -10.4470 C.ar    1  MOL1       -0.0480
      5 C31        11.1310  -18.3140   -9.1740 C.ar    1  MOL1        0.0180
      6 Br32       12.1900  -17.9010   -7.6360 Br      1  MOL1       -0.0510
      7 C33         9.7750  -18.6230   -9.0270 C.ar    1  MOL1       -0.0430
      8  C6         7.5070  -19.2160  -10.0140 C.3     1  MOL1        0.0630
      9  C5         7.1550  -20.5700  -10.6550 C.3     1  MOL1        0.0510
     10  C1         9.0550  -23.8340   -9.6990 C.3     1  MOL1        0.0060
     11  N2         8.5140  -22.7160  -10.4580 N.am    1  MOL1       -0.3590
     12  C3         7.6900  -21.7170   -9.8470 C.2     1  MOL1        0.2220
     13  O4         7.4090  -21.7940   -8.6200 O.2     1  MOL1       -0.2750
     14  N7         6.7340  -18.1350  -10.6330 N.am    1  MOL1       -0.3460
     15  C8         6.6840  -16.8140  -10.0890 C.2     1  MOL1        0.2580
     16  O9         7.3110  -16.5400   -9.0310 O.2     1  MOL1       -0.2710
     17 C10         5.8990  -15.7390  -10.7770 C.3     1  MOL1        0.1670
     18 O11         5.4540  -14.7650   -9.8360 O.3     1  MOL1       -0.4800
     19 C12         4.1340  -14.7240   -9.3790 C.ar    1  MOL1        0.1660
     20 C13         3.1300  -14.0430  -10.1040 C.ar    1  MOL1        0.0120
     21 C21         1.8020  -14.0940   -9.6490 C.ar    1  MOL1       -0.0540
     22 C22         1.4830  -14.7680   -8.4700 C.ar    1  MOL1       -0.0580
     23 C23         2.4830  -15.3980   -7.7300 C.ar    1  MOL1       -0.0160
     24 C24         3.8180  -15.3770   -8.1760 C.ar    1  MOL1        0.1610
     25 C14         3.4470  -13.2570  -11.3570 C.3     1  MOL1        0.0280
     26 N15         3.2230  -11.8140  -11.1310 N.3     1  MOL1       -0.2870
     27 C16         1.8300  -11.4310  -11.4160 C.3     1  MOL1        0.0640
     28 C17         2.2310  -10.5710  -12.5980 C.3     1  MOL1        0.2720
     29 F18         2.0050   -9.2190  -12.4040 F       1  MOL1       -0.2040
     30 F19         1.7710  -11.0480  -13.8150 F       1  MOL1       -0.2040
     31 C20         3.6500  -10.9990  -12.2810 C.3     1  MOL1        0.0640
     32 O25         4.8530  -15.9960   -7.4610 O.3     1  MOL1       -0.4930
     33 C26         4.8010  -17.3280   -6.9600 C.3     1  MOL1        0.0780
@<TRIPOS>BOND
     1    30    28    1
     2    28    29    1
     3    28    31    1
     4    28    27    1
     5    31    26    1
     6     3     2   ar
     7     3     4   ar
     8     2     1   ar
     9    27    26    1
    10    25    26    1
    11    25    20    1
    12    17    15    1
    13    17    18    1
    14     9     8    1
    15     9    12    1
    16    14    15   am
    17    14     8    1
    18    11    12   am
    19    11    10    1
    20     4     5   ar
    21     1     8    1
    22     1     7   ar
    23    20    21   ar
    24    20    19   ar
    25    15    16    2
    26    12    13    2
    27    18    19    1
    28    21    22   ar
    29    19    24   ar
    30     5     7   ar
    31     5     6    1
    32    22    23   ar
    33    24    23   ar
    34    24    32    1
    35    32    33    1
