@<TRIPOS>MOLECULE
L3024_0_out.pdbqt
 33 35 0 0 0
SMALL
GASTEIGER

@<TRIPOS>ATOM
      1 C27        17.5670  -17.6750   -8.6030 C.ar    1  MOL1       -0.0240
      2 C28        18.3390  -18.8310   -8.3840 C.ar    1  MOL1       -0.0570
      3 C29        19.2750  -19.2470   -9.3370 C.ar    1  MOL1       -0.0610
      4 C30        19.4490  -18.5170  -10.5160 C.ar    1  MOL1       -0.0480
      5 C31        18.6900  -17.3640  -10.7440 C.ar    1  MOL1        0.0180
      6 Br32       18.9440  -16.3520  -12.3480 Br      1  MOL1       -0.0510
      7 C33        17.7490  -16.9470   -9.7970 C.ar    1  MOL1       -0.0430
      8  C6        16.5060  -17.2720   -7.6020 C.3     1  MOL1        0.0630
      9  C5        16.8240  -17.8800   -6.2240 C.3     1  MOL1        0.0510
     10  C1        15.4490  -15.0430   -3.9360 C.3     1  MOL1        0.0060
     11  N2        16.1680  -15.7550   -4.9830 N.am    1  MOL1       -0.3590
     12  C3        16.0790  -17.1760   -5.1270 C.2     1  MOL1        0.2220
     13  O4        15.3680  -17.8490   -4.3310 O.2     1  MOL1       -0.2750
     14  N7        15.1820  -17.7030   -8.0630 N.am    1  MOL1       -0.3460
     15  C8        14.0960  -16.7920   -8.2430 C.2     1  MOL1        0.2580
     16  O9        14.2480  -15.5660   -7.9960 O.2     1  MOL1       -0.2710
     17 C10        12.7700  -17.2820   -8.7420 C.3     1  MOL1        0.1670
     18 O11        12.1130  -18.0530   -7.7390 O.3     1  MOL1       -0.4800
     19 C12        11.6840  -19.3620   -7.9730 C.ar    1  MOL1        0.1660
     20 C13        10.5970  -19.6320   -8.8350 C.ar    1  MOL1        0.0120
     21 C21        10.2500  -20.9670   -9.1030 C.ar    1  MOL1       -0.0540
     22 C22        10.9370  -22.0140   -8.4900 C.ar    1  MOL1       -0.0580
     23 C23        11.9770  -21.7440   -7.6000 C.ar    1  MOL1       -0.0160
     24 C24        12.3560  -20.4160   -7.3310 C.ar    1  MOL1        0.1610
     25 C14         9.7940  -18.5220   -9.4770 C.3     1  MOL1        0.0280
     26 N15         8.6350  -18.1700   -8.6320 N.3     1  MOL1       -0.2870
     27 C16         7.3720  -18.2470   -9.3850 C.3     1  MOL1        0.0640
     28 C17         7.1360  -16.7530   -9.2870 C.3     1  MOL1        0.2720
     29 F18         6.0390  -16.4140   -8.5140 F       1  MOL1       -0.2040
     30 F19         7.1870  -16.0990  -10.5070 F       1  MOL1       -0.2040
     31 C20         8.4470  -16.7120   -8.5260 C.3     1  MOL1        0.0640
     32 O25        13.3950  -20.1020   -6.4430 O.3     1  MOL1       -0.4930
     33 C26        13.7810  -20.9100   -5.3370 C.3     1  MOL1        0.0780
@<TRIPOS>BOND
     1     6     5    1
     2     5     4   ar
     3     5     7   ar
     4     4     3   ar
     5    30    28    1
     6     7     1   ar
     7    25    20    1
     8    25    26    1
     9    27    28    1
    10    27    26    1
    11     3     2   ar
    12    28    31    1
    13    28    29    1
    14    21    20   ar
    15    21    22   ar
    16    20    19   ar
    17    17    15    1
    18    17    18    1
    19    26    31    1
    20     1     2   ar
    21     1     8    1
    22    22    23   ar
    23    15    14   am
    24    15    16    2
    25    14     8    1
    26    19    18    1
    27    19    24   ar
    28     8     9    1
    29    23    24   ar
    30    24    32    1
    31    32    33    1
    32     9    12    1
    33    12    11   am
    34    12    13    2
    35    11    10    1
