@<TRIPOS>MOLECULE
L3024_0_out.pdbqt
 33 35 0 0 0
SMALL
GASTEIGER

@<TRIPOS>ATOM
      1 C27         5.3790  -14.5770  -11.2600 C.ar    1  MOL1       -0.0240
      2 C28         5.5550  -13.4180  -12.0380 C.ar    1  MOL1       -0.0570
      3 C29         4.5510  -12.4460  -12.0960 C.ar    1  MOL1       -0.0610
      4 C30         3.3640  -12.6200  -11.3790 C.ar    1  MOL1       -0.0480
      5 C31         3.1770  -13.7660  -10.5980 C.ar    1  MOL1        0.0180
      6 Br32        1.5610  -13.9930   -9.6000 Br      1  MOL1       -0.0510
      7 C33         4.1770  -14.7430  -10.5420 C.ar    1  MOL1       -0.0430
      8  C6         6.4380  -15.6580  -11.2600 C.3     1  MOL1        0.0630
      9  C5         6.3390  -16.4930  -12.5490 C.3     1  MOL1        0.0510
     10  C1         9.3230  -18.9000  -11.8610 C.3     1  MOL1        0.0060
     11  N2         8.1360  -18.0760  -11.6830 N.am    1  MOL1       -0.3590
     12  C3         7.5710  -17.3240  -12.7620 C.2     1  MOL1        0.2220
     13  O4         8.1050  -17.3590  -13.9050 O.2     1  MOL1       -0.2750
     14  N7         6.2920  -16.5140  -10.0780 N.am    1  MOL1       -0.3460
     15  C8         7.3050  -16.6210   -9.0750 C.2     1  MOL1        0.2580
     16  O9         8.3800  -15.9750   -9.1880 O.2     1  MOL1       -0.2710
     17 C10         7.0920  -17.4910   -7.8730 C.3     1  MOL1        0.1670
     18 O11         7.0860  -18.8660   -8.2470 O.3     1  MOL1       -0.4800
     19 C12         5.9020  -19.6010   -8.3540 C.ar    1  MOL1        0.1660
     20 C13         5.8320  -20.7620   -9.1570 C.ar    1  MOL1        0.0120
     21 C21         4.6450  -21.5140   -9.1720 C.ar    1  MOL1       -0.0540
     22 C22         3.5320  -21.0950   -8.4430 C.ar    1  MOL1       -0.0580
     23 C23         3.5880  -19.9210   -7.6900 C.ar    1  MOL1       -0.0160
     24 C24         4.7720  -19.1630   -7.6440 C.ar    1  MOL1        0.1610
     25 C14         7.0000  -21.2180  -10.0030 C.3     1  MOL1        0.0280
     26 N15         7.9200  -22.0540   -9.2050 N.3     1  MOL1       -0.2870
     27 C16         9.3280  -21.7020   -9.4560 C.3     1  MOL1        0.0640
     28 C17         9.6250  -23.0430  -10.0970 C.3     1  MOL1        0.2720
     29 F18        10.5020  -23.8260   -9.3660 F       1  MOL1       -0.2040
     30 F19         9.9350  -22.9610  -11.4440 F       1  MOL1       -0.2040
     31 C20         8.1670  -23.3630   -9.8330 C.3     1  MOL1        0.0640
     32 O25         4.8690  -17.9770   -6.9010 O.3     1  MOL1       -0.4930
     33 C26         4.0380  -16.8370   -7.0910 C.3     1  MOL1        0.0780
@<TRIPOS>BOND
     1    13    12    2
     2    12     9    1
     3    12    11   am
     4     9     8    1
     5     3     2   ar
     6     3     4   ar
     7     2     1   ar
     8    10    11    1
     9    30    28    1
    10     4     5   ar
    11     8     1    1
    12     8    14    1
    13     1     7   ar
    14     5     7   ar
    15     5     6    1
    16    28    31    1
    17    28    27    1
    18    28    29    1
    19    14    15   am
    20    25    26    1
    21    25    20    1
    22    31    26    1
    23    27    26    1
    24    16    15    2
    25    21    20   ar
    26    21    22   ar
    27    20    19   ar
    28    15    17    1
    29    22    23   ar
    30    19    18    1
    31    19    24   ar
    32    18    17    1
    33    23    24   ar
    34    24    32    1
    35    33    32    1
