@<TRIPOS>MOLECULE
L3024_0_out.pdbqt
 33 35 0 0 0
SMALL
GASTEIGER

@<TRIPOS>ATOM
      1 C27         6.8050  -17.6520   -8.7770 C.ar    1  MOL1       -0.0240
      2 C28         6.3860  -18.9930   -8.6950 C.ar    1  MOL1       -0.0570
      3 C29         5.3070  -19.3480   -7.8780 C.ar    1  MOL1       -0.0610
      4 C30         4.6370  -18.3710   -7.1360 C.ar    1  MOL1       -0.0480
      5 C31         5.0420  -17.0330   -7.2110 C.ar    1  MOL1        0.0180
      6 Br32        4.1110  -15.6930   -6.2120 Br      1  MOL1       -0.0510
      7 C33         6.1230  -16.6750   -8.0230 C.ar    1  MOL1       -0.0430
      8  C6         8.0170  -17.2870   -9.6060 C.3     1  MOL1        0.0630
      9  C5         7.7940  -17.6940  -11.0740 C.3     1  MOL1        0.0510
     10  C1         5.5940  -14.5620  -11.7970 C.3     1  MOL1        0.0060
     11  N2         6.4610  -15.5240  -11.1330 N.am    1  MOL1       -0.3590
     12  C3         6.8910  -16.7260  -11.7820 C.2     1  MOL1        0.2220
     13  O4         6.5160  -16.9770  -12.9590 O.2     1  MOL1       -0.2750
     14  N7         9.2160  -17.9380   -9.0660 N.am    1  MOL1       -0.3460
     15  C8        10.0260  -17.3380   -8.0530 C.2     1  MOL1        0.2580
     16  O9         9.7320  -16.2040   -7.5930 O.2     1  MOL1       -0.2710
     17 C10        11.2270  -18.0590   -7.5180 C.3     1  MOL1        0.1670
     18 O11        12.3980  -17.6830   -8.2400 O.3     1  MOL1       -0.4800
     19 C12        13.6770  -17.7920   -7.6880 C.ar    1  MOL1        0.1660
     20 C13        14.3850  -19.0150   -7.7170 C.ar    1  MOL1        0.0120
     21 C21        15.6980  -19.0580   -7.2220 C.ar    1  MOL1       -0.0540
     22 C22        16.2820  -17.9220   -6.6620 C.ar    1  MOL1       -0.0580
     23 C23        15.5630  -16.7280   -6.5880 C.ar    1  MOL1       -0.0160
     24 C24        14.2530  -16.6550   -7.0970 C.ar    1  MOL1        0.1610
     25 C14        13.7660  -20.2810   -8.2670 C.3     1  MOL1        0.0280
     26 N15        13.7460  -21.3360   -7.2340 N.3     1  MOL1       -0.2870
     27 C16        13.9740  -22.6690   -7.8180 C.3     1  MOL1        0.0640
     28 C17        12.5760  -23.1410   -7.4700 C.3     1  MOL1        0.2720
     29 F18        12.5490  -24.1450   -6.5180 F       1  MOL1       -0.2040
     30 F19        11.7830  -23.3960   -8.5770 F       1  MOL1       -0.2040
     31 C20        12.3760  -21.7540   -6.8920 C.3     1  MOL1        0.0640
     32 O25        13.4960  -15.4760   -7.0410 O.3     1  MOL1       -0.4930
     33 C26        12.7470  -15.0520   -5.9070 C.3     1  MOL1        0.0780
@<TRIPOS>BOND
     1    13    12    2
     2    10    11    1
     3    12    11   am
     4    12     9    1
     5     9     8    1
     6     8    14    1
     7     8     1    1
     8    14    15   am
     9     1     2   ar
    10     1     7   ar
    11     2     3   ar
    12    30    28    1
    13    25    20    1
    14    25    26    1
    15    18    19    1
    16    18    17    1
    17    15    16    2
    18    15    17    1
    19     7     5   ar
    20     3     4   ar
    21    27    28    1
    22    27    26    1
    23    20    19   ar
    24    20    21   ar
    25    19    24   ar
    26    28    31    1
    27    28    29    1
    28    26    31    1
    29    21    22   ar
    30     5     4   ar
    31     5     6    1
    32    24    32    1
    33    24    23   ar
    34    32    33    1
    35    22    23   ar
