@<TRIPOS>MOLECULE
L3024_0_out.pdbqt
 33 35 0 0 0
SMALL
GASTEIGER

@<TRIPOS>ATOM
      1 C27         8.6090  -20.3310   -9.6230 C.ar    1  MOL1       -0.0240
      2 C28         7.2510  -20.6860   -9.5290 C.ar    1  MOL1       -0.0570
      3 C29         6.8710  -22.0320   -9.5190 C.ar    1  MOL1       -0.0610
      4 C30         7.8400  -23.0360   -9.6010 C.ar    1  MOL1       -0.0480
      5 C31         9.1940  -22.6970   -9.6920 C.ar    1  MOL1        0.0180
      6 Br32       10.5220  -24.0710   -9.7830 Br      1  MOL1       -0.0510
      7 C33         9.5780  -21.3520   -9.7080 C.ar    1  MOL1       -0.0430
      8  C6         9.0070  -18.8740   -9.7080 C.3     1  MOL1        0.0630
      9  C5         8.5800  -18.2880  -11.0650 C.3     1  MOL1        0.0510
     10  C1         5.8740  -15.5890  -11.8200 C.3     1  MOL1        0.0060
     11  N2         6.7890  -16.7130  -11.9600 N.am    1  MOL1       -0.3590
     12  C3         7.6550  -17.1180  -10.8940 C.2     1  MOL1        0.2220
     13  O4         7.6430  -16.4940   -9.7980 O.2     1  MOL1       -0.2750
     14  N7        10.4540  -18.7300   -9.5160 N.am    1  MOL1       -0.3460
     15  C8        11.0200  -17.7780   -8.6120 C.2     1  MOL1        0.2580
     16  O9        10.2730  -17.0120   -7.9470 O.2     1  MOL1       -0.2710
     17 C10        12.5060  -17.6910   -8.4340 C.3     1  MOL1        0.1670
     18 O11        12.8350  -17.5250   -7.0570 O.3     1  MOL1       -0.4800
     19 C12        14.1570  -17.5310   -6.6050 C.ar    1  MOL1        0.1660
     20 C13        14.7870  -18.7320   -6.2030 C.ar    1  MOL1        0.0120
     21 C21        16.1410  -18.7040   -5.8310 C.ar    1  MOL1       -0.0540
     22 C22        16.8460  -17.5000   -5.8110 C.ar    1  MOL1       -0.0580
     23 C23        16.2080  -16.3090   -6.1600 C.ar    1  MOL1       -0.0160
     24 C24        14.8580  -16.3150   -6.5560 C.ar    1  MOL1        0.1610
     25 C14        14.0410  -20.0470   -6.1610 C.3     1  MOL1        0.0280
     26 N15        14.2380  -20.7920   -7.4210 N.3     1  MOL1       -0.2870
     27 C16        13.0140  -21.5050   -7.8250 C.3     1  MOL1        0.0640
     28 C17        13.6510  -22.8650   -7.6230 C.3     1  MOL1        0.2720
     29 F18        13.8210  -23.5800   -8.7960 F       1  MOL1       -0.2040
     30 F19        13.0820  -23.6000   -6.5950 F       1  MOL1       -0.2040
     31 C20        14.8870  -22.0960   -7.2000 C.3     1  MOL1        0.0640
     32 O25        14.1800  -15.1400   -6.9130 O.3     1  MOL1       -0.4930
     33 C26        14.6260  -14.2230   -7.9070 C.3     1  MOL1        0.0780
@<TRIPOS>BOND
     1    11    10    1
     2    11    12   am
     3     9    12    1
     4     9     8    1
     5    12    13    2
     6     6     5    1
     7     7     5   ar
     8     7     1   ar
     9     8     1    1
    10     8    14    1
    11     5     4   ar
    12     1     2   ar
    13     4     3   ar
    14     2     3   ar
    15    14    15   am
    16    29    28    1
    17    15    17    1
    18    15    16    2
    19    17    18    1
    20    33    32    1
    21    27    28    1
    22    27    26    1
    23    28    31    1
    24    28    30    1
    25    26    31    1
    26    26    25    1
    27    18    19    1
    28    32    24    1
    29    19    24   ar
    30    19    20   ar
    31    24    23   ar
    32    20    25    1
    33    20    21   ar
    34    23    22   ar
    35    21    22   ar
