@<TRIPOS>MOLECULE
L3024_0_out.pdbqt
 33 35 0 0 0
SMALL
GASTEIGER

@<TRIPOS>ATOM
      1 C27        10.2710  -17.9180   -8.5530 C.ar    1  MOL1       -0.0240
      2 C28         9.7610  -16.7960   -7.8750 C.ar    1  MOL1       -0.0570
      3 C29         8.6060  -16.1550   -8.3370 C.ar    1  MOL1       -0.0610
      4 C30         7.9500  -16.6270   -9.4770 C.ar    1  MOL1       -0.0480
      5 C31         8.4460  -17.7440  -10.1590 C.ar    1  MOL1        0.0180
      6 Br32        7.5350  -18.4030  -11.7070 Br      1  MOL1       -0.0510
      7 C33         9.6030  -18.3840   -9.7040 C.ar    1  MOL1       -0.0430
      8  C6        11.5610  -18.5600   -8.0900 C.3     1  MOL1        0.0630
      9  C5        11.2620  -19.8940   -7.3840 C.3     1  MOL1        0.0510
     10  C1        12.9410  -23.3430   -8.0610 C.3     1  MOL1        0.0060
     11  N2        11.9570  -22.3170   -7.7490 N.am    1  MOL1       -0.3590
     12  C3        12.3030  -20.9290   -7.6980 C.2     1  MOL1        0.2220
     13  O4        13.4900  -20.5650   -7.9210 O.2     1  MOL1       -0.2750
     14  N7        12.2880  -17.6530   -7.1950 N.am    1  MOL1       -0.3460
     15  C8        13.5260  -17.0410   -7.5600 C.2     1  MOL1        0.2580
     16  O9        14.0450  -17.2770   -8.6830 O.2     1  MOL1       -0.2710
     17 C10        14.2140  -16.1010   -6.6160 C.3     1  MOL1        0.1670
     18 O11        14.7050  -16.8060   -5.4780 O.3     1  MOL1       -0.4800
     19 C12        15.8980  -16.4500   -4.8430 C.ar    1  MOL1        0.1660
     20 C13        17.1400  -16.9640   -5.2800 C.ar    1  MOL1        0.0120
     21 C21        18.3210  -16.5180   -4.6630 C.ar    1  MOL1       -0.0540
     22 C22        18.2680  -15.6160   -3.6000 C.ar    1  MOL1       -0.0580
     23 C23        17.0370  -15.1500   -3.1370 C.ar    1  MOL1       -0.0160
     24 C24        15.8420  -15.5670   -3.7530 C.ar    1  MOL1        0.1610
     25 C14        17.2340  -17.9830   -6.3940 C.3     1  MOL1        0.0280
     26 N15        18.0260  -19.1510   -5.9590 N.3     1  MOL1       -0.2870
     27 C16        19.1140  -19.4510   -6.9050 C.3     1  MOL1        0.0640
     28 C17        18.4970  -20.7750   -7.3090 C.3     1  MOL1        0.2720
     29 F18        19.2430  -21.8760   -6.9240 F       1  MOL1       -0.2040
     30 F19        18.0770  -20.8160   -8.6280 F       1  MOL1       -0.2040
     31 C20        17.3890  -20.4250   -6.3350 C.3     1  MOL1        0.0640
     32 O25        14.5850  -15.1220   -3.3170 O.3     1  MOL1       -0.4930
     33 C26        14.1330  -13.7750   -3.4050 C.3     1  MOL1        0.0780
@<TRIPOS>BOND
     1     6     5    1
     2     5     7   ar
     3     5     4   ar
     4     7     1   ar
     5     4     3   ar
     6    16    15    2
     7    30    28    1
     8     1     8    1
     9     1     2   ar
    10     3     2   ar
    11     8     9    1
    12     8    14    1
    13    10    11    1
    14    13    12    2
    15    11    12   am
    16    12     9    1
    17    15    14   am
    18    15    17    1
    19    28    29    1
    20    28    27    1
    21    28    31    1
    22    27    26    1
    23    17    18    1
    24    25    26    1
    25    25    20    1
    26    31    26    1
    27    18    19    1
    28    20    19   ar
    29    20    21   ar
    30    19    24   ar
    31    21    22   ar
    32    24    32    1
    33    24    23   ar
    34    22    23   ar
    35    33    32    1
