@<TRIPOS>MOLECULE
L3024_0_out.pdbqt
 33 35 0 0 0
SMALL
GASTEIGER

@<TRIPOS>ATOM
      1 C27        12.7180  -19.9940   -7.1760 C.ar    1  MOL1       -0.0240
      2 C28        13.4750  -20.3010   -6.0310 C.ar    1  MOL1       -0.0570
      3 C29        13.6650  -21.6320   -5.6440 C.ar    1  MOL1       -0.0610
      4 C30        13.1030  -22.6680   -6.3950 C.ar    1  MOL1       -0.0480
      5 C31        12.3500  -22.3770   -7.5380 C.ar    1  MOL1        0.0180
      6 Br32       11.5990  -23.7960   -8.5780 Br      1  MOL1       -0.0510
      7 C33        12.1540  -21.0470   -7.9250 C.ar    1  MOL1       -0.0430
      8  C6        12.4570  -18.5500   -7.5470 C.3     1  MOL1        0.0630
      9  C5        12.3880  -18.4030   -9.0770 C.3     1  MOL1        0.0510
     10  C1         9.1440  -18.6490  -11.2200 C.3     1  MOL1        0.0060
     11  N2        10.5090  -18.8240  -10.7450 N.am    1  MOL1       -0.3590
     12  C3        10.9770  -18.1940   -9.5470 C.2     1  MOL1        0.2220
     13  O4        10.2030  -17.4600   -8.8740 O.2     1  MOL1       -0.2750
     14  N7        13.5040  -17.6860   -6.9910 N.am    1  MOL1       -0.3460
     15  C8        13.2540  -16.3380   -6.5880 C.2     1  MOL1        0.2580
     16  O9        12.1030  -15.8410   -6.7100 O.2     1  MOL1       -0.2710
     17 C10        14.3540  -15.5050   -6.0020 C.3     1  MOL1        0.1670
     18 O11        15.5430  -15.6310   -6.7780 O.3     1  MOL1       -0.4800
     19 C12        16.6140  -16.4300   -6.3700 C.ar    1  MOL1        0.1660
     20 C13        17.2070  -16.2630   -5.0970 C.ar    1  MOL1        0.0120
     21 C21        18.2290  -17.1400   -4.6970 C.ar    1  MOL1       -0.0540
     22 C22        18.6880  -18.1340   -5.5610 C.ar    1  MOL1       -0.0580
     23 C23        18.1370  -18.2640   -6.8360 C.ar    1  MOL1       -0.0160
     24 C24        17.0980  -17.4100   -7.2520 C.ar    1  MOL1        0.1610
     25 C14        16.7720  -15.1640   -4.1540 C.3     1  MOL1        0.0280
     26 N15        16.4390  -15.7240   -2.8280 N.3     1  MOL1       -0.2870
     27 C16        15.2990  -16.6540   -2.9030 C.3     1  MOL1        0.0640
     28 C17        14.4100  -15.7460   -2.0760 C.3     1  MOL1        0.2720
     29 F18        14.0750  -16.2720   -0.8400 F       1  MOL1       -0.2040
     30 F19        13.3320  -15.2320   -2.7780 F       1  MOL1       -0.2040
     31 C20        15.6010  -14.8100   -2.0330 C.3     1  MOL1        0.0640
     32 O25        16.5170  -17.5080   -8.5240 O.3     1  MOL1       -0.4930
     33 C26        16.2360  -18.7350   -9.1890 C.3     1  MOL1        0.0780
@<TRIPOS>BOND
     1    10    11    1
     2    11    12   am
     3    12     9    1
     4    12    13    2
     5    33    32    1
     6     9     8    1
     7     6     5    1
     8    32    24    1
     9     7     5   ar
    10     7     1   ar
    11     8     1    1
    12     8    14    1
    13     5     4   ar
    14    24    23   ar
    15    24    19   ar
    16     1     2   ar
    17    14    15   am
    18    23    22   ar
    19    18    19    1
    20    18    17    1
    21    16    15    2
    22    15    17    1
    23     4     3   ar
    24    19    20   ar
    25     2     3   ar
    26    22    21   ar
    27    20    21   ar
    28    20    25    1
    29    25    26    1
    30    27    26    1
    31    27    28    1
    32    26    31    1
    33    30    28    1
    34    28    31    1
    35    28    29    1
