@<TRIPOS>MOLECULE
L3024_0_out.pdbqt
 33 35 0 0 0
SMALL
GASTEIGER

@<TRIPOS>ATOM
      1 C27        12.1740  -16.5730   -7.3970 C.ar    1  MOL1       -0.0240
      2 C28        11.9780  -15.6950   -6.3160 C.ar    1  MOL1       -0.0570
      3 C29        13.0600  -15.0020   -5.7610 C.ar    1  MOL1       -0.0610
      4 C30        14.3450  -15.1790   -6.2800 C.ar    1  MOL1       -0.0480
      5 C31        14.5540  -16.0470   -7.3570 C.ar    1  MOL1        0.0180
      6 Br32       16.3110  -16.2720   -8.0800 Br      1  MOL1       -0.0510
      7 C33        13.4760  -16.7450   -7.9100 C.ar    1  MOL1       -0.0430
      8  C6        11.0120  -17.3730   -7.9430 C.3     1  MOL1        0.0630
      9  C5         9.6830  -16.6800   -7.5920 C.3     1  MOL1        0.0510
     10  C1         7.0850  -16.6730  -10.4950 C.3     1  MOL1        0.0060
     11  N2         8.1490  -16.2740   -9.5840 N.am    1  MOL1       -0.3590
     12  C3         8.5760  -17.1160   -8.5080 C.2     1  MOL1        0.2220
     13  O4         8.0240  -18.2350   -8.3230 O.2     1  MOL1       -0.2750
     14  N7        11.0390  -18.7390   -7.4080 N.am    1  MOL1       -0.3460
     15  C8        11.4300  -19.8660   -8.1960 C.2     1  MOL1        0.2580
     16  O9        11.7590  -19.7140   -9.4020 O.2     1  MOL1       -0.2710
     17 C10        11.4650  -21.2380   -7.5910 C.3     1  MOL1        0.1670
     18 O11        11.8280  -22.2060   -8.5730 O.3     1  MOL1       -0.4800
     19 C12        11.2200  -23.4620   -8.6360 C.ar    1  MOL1        0.1660
     20 C13         9.9830  -23.6430   -9.2950 C.ar    1  MOL1        0.0120
     21 C21         9.4460  -24.9370   -9.4030 C.ar    1  MOL1       -0.0540
     22 C22        10.1000  -26.0250   -8.8250 C.ar    1  MOL1       -0.0580
     23 C23        11.2950  -25.8370   -8.1310 C.ar    1  MOL1       -0.0160
     24 C24        11.8620  -24.5530   -8.0270 C.ar    1  MOL1        0.1610
     25 C14         9.2180  -22.4800   -9.8880 C.3     1  MOL1        0.0280
     26 N15         7.7750  -22.7880   -9.9480 N.3     1  MOL1       -0.2870
     27 C16         7.1680  -22.3000  -11.1980 C.3     1  MOL1        0.0640
     28 C17         6.3090  -21.2850  -10.4710 C.3     1  MOL1        0.2720
     29 F18         4.9530  -21.5540  -10.5390 F       1  MOL1       -0.2040
     30 F19         6.6360  -19.9700  -10.7590 F       1  MOL1       -0.2040
     31 C20         6.9660  -21.8050   -9.2070 C.3     1  MOL1        0.0640
     32 O25        13.0610  -24.3210   -7.3380 O.3     1  MOL1       -0.4930
     33 C26        13.3870  -24.8890   -6.0730 C.3     1  MOL1        0.0780
@<TRIPOS>BOND
     1    27    28    1
     2    27    26    1
     3    30    28    1
     4    29    28    1
     5    10    11    1
     6    28    31    1
     7    26    25    1
     8    26    31    1
     9    25    20    1
    10    11    12   am
    11    21    20   ar
    12    21    22   ar
    13    16    15    2
    14    20    19   ar
    15    22    23   ar
    16    19    18    1
    17    19    24   ar
    18    18    17    1
    19    12    13    2
    20    12     9    1
    21    15    17    1
    22    15    14   am
    23    23    24   ar
    24     6     5    1
    25    24    32    1
    26     8     9    1
    27     8    14    1
    28     8     1    1
    29     7     1   ar
    30     7     5   ar
    31     1     2   ar
    32     5     4   ar
    33    32    33    1
    34     2     3   ar
    35     4     3   ar
