@<TRIPOS>MOLECULE
L3024_0_out.pdbqt
 33 35 0 0 0
SMALL
GASTEIGER

@<TRIPOS>ATOM
      1 C27         6.5080  -19.0780   -8.6630 C.ar    1  MOL1       -0.0240
      2 C28         7.6400  -18.3960   -9.1460 C.ar    1  MOL1       -0.0570
      3 C29         7.8250  -17.0400   -8.8580 C.ar    1  MOL1       -0.0610
      4 C30         6.8840  -16.3520   -8.0870 C.ar    1  MOL1       -0.0480
      5 C31         5.7550  -17.0200   -7.5970 C.ar    1  MOL1        0.0180
      6 Br32        4.4790  -16.0830   -6.5230 Br      1  MOL1       -0.0510
      7 C33         5.5650  -18.3740   -7.8880 C.ar    1  MOL1       -0.0430
      8  C6         6.2790  -20.5260   -9.0400 C.3     1  MOL1        0.0630
      9  C5         5.4380  -21.2260   -7.9580 C.3     1  MOL1        0.0510
     10  C1         2.6450  -22.5000  -10.3540 C.3     1  MOL1        0.0060
     11  N2         3.9390  -22.0990   -9.8220 N.am    1  MOL1       -0.3590
     12  C3         4.0880  -21.6230   -8.4800 C.2     1  MOL1        0.2220
     13  O4         3.0820  -21.5370   -7.7240 O.2     1  MOL1       -0.2750
     14  N7         7.5620  -21.2130   -9.2220 N.am    1  MOL1       -0.3460
     15  C8         7.9370  -21.8290  -10.4570 C.2     1  MOL1        0.2580
     16  O9         7.1520  -21.8060  -11.4420 O.2     1  MOL1       -0.2710
     17 C10         9.2720  -22.4960  -10.5970 C.3     1  MOL1        0.1670
     18 O11         9.5460  -23.3090   -9.4580 O.3     1  MOL1       -0.4800
     19 C12        10.8500  -23.5540   -9.0180 C.ar    1  MOL1        0.1660
     20 C13        11.5710  -22.5810   -8.2900 C.ar    1  MOL1        0.0120
     21 C21        12.8490  -22.8990   -7.8000 C.ar    1  MOL1       -0.0540
     22 C22        13.4200  -24.1430   -8.0680 C.ar    1  MOL1       -0.0580
     23 C23        12.7270  -25.0840   -8.8300 C.ar    1  MOL1       -0.0160
     24 C24        11.4370  -24.7950   -9.3150 C.ar    1  MOL1        0.1610
     25 C14        11.0060  -21.2030   -8.0250 C.3     1  MOL1        0.0280
     26 N15        11.9290  -20.1620   -8.5230 N.3     1  MOL1       -0.2870
     27 C16        12.3780  -19.2730   -7.4380 C.3     1  MOL1        0.0640
     28 C17        11.6640  -18.0730   -8.0280 C.3     1  MOL1        0.2720
     29 F18        12.5210  -17.0830   -8.4780 F       1  MOL1       -0.2040
     30 F19        10.6240  -17.6010   -7.2430 F       1  MOL1       -0.2040
     31 C20        11.2120  -19.0230   -9.1190 C.3     1  MOL1        0.0640
     32 O25        10.7080  -25.7120  -10.0840 O.3     1  MOL1       -0.4930
     33 C26        10.7950  -25.8240  -11.5010 C.3     1  MOL1        0.0780
@<TRIPOS>BOND
     1    33    32    1
     2    16    15    2
     3    17    15    1
     4    17    18    1
     5    15    14   am
     6    10    11    1
     7    32    24    1
     8    11    12   am
     9    18    19    1
    10    24    19   ar
    11    24    23   ar
    12    14     8    1
    13     2     3   ar
    14     2     1   ar
    15    31    26    1
    16    31    28    1
    17     8     1    1
    18     8     9    1
    19    19    20   ar
    20     3     4   ar
    21    23    22   ar
    22     1     7   ar
    23    26    25    1
    24    26    27    1
    25    12     9    1
    26    12    13    2
    27    29    28    1
    28    20    25    1
    29    20    21   ar
    30     4     5   ar
    31    22    21   ar
    32    28    27    1
    33    28    30    1
    34     7     5   ar
    35     5     6    1
