@<TRIPOS>MOLECULE
L3024_0_out.pdbqt
 33 35 0 0 0
SMALL
GASTEIGER

@<TRIPOS>ATOM
      1 C27         5.9620  -19.7990   -8.9030 C.ar    1  MOL1       -0.0240
      2 C28         5.5470  -19.7240   -7.5600 C.ar    1  MOL1       -0.0570
      3 C29         4.5240  -20.5530   -7.0890 C.ar    1  MOL1       -0.0610
      4 C30         3.9040  -21.4620   -7.9510 C.ar    1  MOL1       -0.0480
      5 C31         4.3090  -21.5490   -9.2880 C.ar    1  MOL1        0.0180
      6 Br32        3.4760  -22.8090  -10.4610 Br      1  MOL1       -0.0510
      7 C33         5.3290  -20.7180   -9.7640 C.ar    1  MOL1       -0.0430
      8  C6         7.0190  -18.8490   -9.4230 C.3     1  MOL1        0.0630
      9  C5         8.1510  -18.7030   -8.3900 C.3     1  MOL1        0.0510
     10  C1        11.3350  -18.5700  -10.6300 C.3     1  MOL1        0.0060
     11  N2        10.1100  -19.0210   -9.9870 N.am    1  MOL1       -0.3590
     12  C3         9.4190  -18.2140   -9.0270 C.2     1  MOL1        0.2220
     13  O4         9.8720  -17.0790   -8.7130 O.2     1  MOL1       -0.2750
     14  N7         6.4250  -17.5420   -9.7240 N.am    1  MOL1       -0.3460
     15  C8         6.4860  -16.9510  -11.0240 C.2     1  MOL1        0.2580
     16  O9         7.0760  -17.5460  -11.9650 O.2     1  MOL1       -0.2710
     17 C10         5.8390  -15.6240  -11.2850 C.3     1  MOL1        0.1670
     18 O11         5.4770  -14.9960  -10.0570 O.3     1  MOL1       -0.4800
     19 C12         4.1430  -14.7780   -9.7010 C.ar    1  MOL1        0.1660
     20 C13         3.2400  -14.1580  -10.5940 C.ar    1  MOL1        0.0120
     21 C21         1.8900  -14.0310  -10.2250 C.ar    1  MOL1       -0.0540
     22 C22         1.4540  -14.4660   -8.9740 C.ar    1  MOL1       -0.0580
     23 C23         2.3580  -15.0320   -8.0740 C.ar    1  MOL1       -0.0160
     24 C24         3.7110  -15.1880   -8.4290 C.ar    1  MOL1        0.1610
     25 C14         3.6870  -13.6250  -11.9380 C.3     1  MOL1        0.0280
     26 N15         4.1720  -12.2360  -11.8060 N.3     1  MOL1       -0.2870
     27 C16         3.1680  -11.3700  -11.1650 C.3     1  MOL1        0.0640
     28 C17         2.9700  -10.5460  -12.4220 C.3     1  MOL1        0.2720
     29 F18         3.4030   -9.2370  -12.3010 F       1  MOL1       -0.2040
     30 F19         1.7070  -10.6700  -12.9770 F       1  MOL1       -0.2040
     31 C20         3.9980  -11.4670  -13.0500 C.3     1  MOL1        0.0640
     32 O25         4.6510  -15.7510   -7.5540 O.3     1  MOL1       -0.4930
     33 C26         4.4650  -15.8820   -6.1490 C.3     1  MOL1        0.0780
@<TRIPOS>BOND
     1    31    28    1
     2    31    26    1
     3    30    28    1
     4    28    29    1
     5    28    27    1
     6    16    15    2
     7    25    26    1
     8    25    20    1
     9    26    27    1
    10    17    15    1
    11    17    18    1
    12    15    14   am
    13    10    11    1
    14    20    21   ar
    15    20    19   ar
    16     6     5    1
    17    21    22   ar
    18    18    19    1
    19    11    12   am
    20     7     5   ar
    21     7     1   ar
    22    14     8    1
    23    19    24   ar
    24     8     1    1
    25     8     9    1
    26     5     4   ar
    27    12    13    2
    28    12     9    1
    29    22    23   ar
    30     1     2   ar
    31    24    23   ar
    32    24    32    1
    33     4     3   ar
    34     2     3   ar
    35    32    33    1
