@<TRIPOS>MOLECULE
L3024_0_out.pdbqt
 33 35 0 0 0
SMALL
GASTEIGER

@<TRIPOS>ATOM
      1 C27        14.0950  -17.1930   -7.2780 C.ar    1  MOL1       -0.0240
      2 C28        14.1370  -16.2100   -8.2840 C.ar    1  MOL1       -0.0570
      3 C29        14.2690  -14.8580   -7.9480 C.ar    1  MOL1       -0.0610
      4 C30        14.3590  -14.4750   -6.6070 C.ar    1  MOL1       -0.0480
      5 C31        14.3220  -15.4420   -5.5970 C.ar    1  MOL1        0.0180
      6 Br32       14.4680  -14.9180   -3.7620 Br      1  MOL1       -0.0510
      7 C33        14.1850  -16.7940   -5.9290 C.ar    1  MOL1       -0.0430
      8  C6        13.8790  -18.6450   -7.6460 C.3     1  MOL1        0.0630
      9  C5        15.0890  -19.1730   -8.4370 C.3     1  MOL1        0.0510
     10  C1        17.7500  -19.6490   -5.6330 C.3     1  MOL1        0.0060
     11  N2        16.5250  -19.7460   -6.4140 N.am    1  MOL1       -0.3590
     12  C3        16.3610  -19.0440   -7.6500 C.2     1  MOL1        0.2220
     13  O4        17.2890  -18.3110   -8.0890 O.2     1  MOL1       -0.2750
     14  N7        12.6460  -18.7930   -8.4270 N.am    1  MOL1       -0.3460
     15  C8        11.8070  -19.9460   -8.3280 C.2     1  MOL1        0.2580
     16  O9        12.1170  -20.8920   -7.5560 O.2     1  MOL1       -0.2710
     17 C10        10.5440  -20.0350   -9.1300 C.3     1  MOL1        0.1670
     18 O11         9.5850  -20.8500   -8.4610 O.3     1  MOL1       -0.4800
     19 C12         8.4510  -21.3460   -9.1110 C.ar    1  MOL1        0.1660
     20 C13         7.2810  -20.5620   -9.2390 C.ar    1  MOL1        0.0120
     21 C21         6.1930  -21.0700   -9.9680 C.ar    1  MOL1       -0.0540
     22 C22         6.2450  -22.3500  -10.5190 C.ar    1  MOL1       -0.0580
     23 C23         7.3820  -23.1410  -10.3490 C.ar    1  MOL1       -0.0160
     24 C24         8.4920  -22.6460   -9.6390 C.ar    1  MOL1        0.1610
     25 C14         7.1670  -19.1910   -8.6100 C.3     1  MOL1        0.0280
     26 N15         6.6930  -18.2060   -9.6030 N.3     1  MOL1       -0.2870
     27 C16         7.8110  -17.6240  -10.3650 C.3     1  MOL1        0.0640
     28 C17         7.5890  -16.2440   -9.7790 C.3     1  MOL1        0.2720
     29 F18         7.1640  -15.3080  -10.7060 F       1  MOL1       -0.2040
     30 F19         8.6280  -15.8050   -8.9740 F       1  MOL1       -0.2040
     31 C20         6.4540  -16.8830   -9.0020 C.3     1  MOL1        0.0640
     32 O25         9.6520  -23.4090   -9.4450 O.3     1  MOL1       -0.4930
     33 C26        10.4410  -23.9580  -10.4950 C.3     1  MOL1        0.0780
@<TRIPOS>BOND
     1    29    28    1
     2    22    23   ar
     3    22    21   ar
     4    33    32    1
     5    27    28    1
     6    27    26    1
     7    23    24   ar
     8    21    20   ar
     9    28    31    1
    10    28    30    1
    11    24    32    1
    12    24    19   ar
    13    26    31    1
    14    26    25    1
    15    20    19   ar
    16    20    25    1
    17    17    18    1
    18    17    15    1
    19    19    18    1
    20     9    12    1
    21     9     8    1
    22    14    15   am
    23    14     8    1
    24    15    16    2
    25     2     3   ar
    26     2     1   ar
    27    13    12    2
    28     3     4   ar
    29    12    11   am
    30     8     1    1
    31     1     7   ar
    32     4     5   ar
    33    11    10    1
    34     7     5   ar
    35     5     6    1
