@<TRIPOS>MOLECULE
L3024_0_out.pdbqt
 33 35 0 0 0
SMALL
GASTEIGER

@<TRIPOS>ATOM
      1 C27        15.0420  -18.4160   -8.1880 C.ar    1  MOL1       -0.0240
      2 C28        14.8450  -17.2270   -7.4620 C.ar    1  MOL1       -0.0570
      3 C29        15.6800  -16.1240   -7.6700 C.ar    1  MOL1       -0.0610
      4 C30        16.7170  -16.1960   -8.6040 C.ar    1  MOL1       -0.0480
      5 C31        16.9220  -17.3720   -9.3350 C.ar    1  MOL1        0.0180
      6 Br32       18.3290  -17.4630  -10.6290 Br      1  MOL1       -0.0510
      7 C33        16.0920  -18.4780   -9.1250 C.ar    1  MOL1       -0.0430
      8  C6        14.1800  -19.6280   -7.9040 C.3     1  MOL1        0.0630
      9  C5        14.9220  -20.9110   -8.3210 C.3     1  MOL1        0.0510
     10  C1        13.2480  -24.1160   -6.8730 C.3     1  MOL1        0.0060
     11  N2        13.5740  -22.9910   -7.7380 N.am    1  MOL1       -0.3590
     12  C3        14.6030  -22.0540   -7.4020 C.2     1  MOL1        0.2220
     13  O4        15.2520  -22.1860   -6.3290 O.2     1  MOL1       -0.2750
     14  N7        12.9000  -19.5180   -8.6120 N.am    1  MOL1       -0.3460
     15  C8        11.6540  -19.8660   -8.0050 C.2     1  MOL1        0.2580
     16  O9        11.6220  -20.2960   -6.8210 O.2     1  MOL1       -0.2710
     17 C10        10.3710  -19.7110   -8.7650 C.3     1  MOL1        0.1670
     18 O11         9.3430  -20.5030   -8.1760 O.3     1  MOL1       -0.4800
     19 C12         8.3450  -21.1110   -8.9410 C.ar    1  MOL1        0.1660
     20 C13         7.0620  -20.5290   -9.0660 C.ar    1  MOL1        0.0120
     21 C21         6.1150  -21.1330   -9.9100 C.ar    1  MOL1       -0.0540
     22 C22         6.4170  -22.3190  -10.5790 C.ar    1  MOL1       -0.0580
     23 C23         7.6660  -22.9180  -10.4150 C.ar    1  MOL1       -0.0160
     24 C24         8.6380  -22.3210   -9.5910 C.ar    1  MOL1        0.1610
     25 C14         6.6800  -19.2730   -8.3140 C.3     1  MOL1        0.0280
     26 N15         6.3890  -18.1750   -9.2590 N.3     1  MOL1       -0.2870
     27 C16         7.5300  -17.9120  -10.1530 C.3     1  MOL1        0.0640
     28 C17         7.7690  -16.5370   -9.5630 C.3     1  MOL1        0.2720
     29 F18         7.5190  -15.5020  -10.4470 F       1  MOL1       -0.2040
     30 F19         8.9750  -16.4210   -8.8900 F       1  MOL1       -0.2040
     31 C20         6.5990  -16.8500   -8.6510 C.3     1  MOL1        0.0640
     32 O25         9.9040  -22.8920   -9.3990 O.3     1  MOL1       -0.4930
     33 C26        10.1560  -24.2920   -9.3350 C.3     1  MOL1        0.0780
@<TRIPOS>BOND
     1     6     5    1
     2    22    23   ar
     3    22    21   ar
     4    29    28    1
     5    23    24   ar
     6    27    28    1
     7    27    26    1
     8    21    20   ar
     9    24    32    1
    10    24    19   ar
    11    28    30    1
    12    28    31    1
    13    32    33    1
    14     5     7   ar
    15     5     4   ar
    16    26    31    1
    17    26    25    1
    18     7     1   ar
    19    20    19   ar
    20    20    25    1
    21    19    18    1
    22    17    18    1
    23    17    15    1
    24    14    15   am
    25    14     8    1
    26     4     3   ar
    27     9     8    1
    28     9    12    1
    29     1     8    1
    30     1     2   ar
    31    15    16    2
    32    11    12   am
    33    11    10    1
    34     3     2   ar
    35    12    13    2
