@<TRIPOS>MOLECULE
L3024_0_out.pdbqt
 33 35 0 0 0
SMALL
GASTEIGER

@<TRIPOS>ATOM
      1 C27         6.2850  -16.9910   -8.6860 C.ar    1  MOL1       -0.0240
      2 C28         5.4700  -16.1650   -7.8910 C.ar    1  MOL1       -0.0570
      3 C29         4.5260  -16.7270   -7.0240 C.ar    1  MOL1       -0.0610
      4 C30         4.3860  -18.1150   -6.9440 C.ar    1  MOL1       -0.0480
      5 C31         5.1930  -18.9480   -7.7280 C.ar    1  MOL1        0.0180
      6 Br32        5.0160  -20.8490   -7.6020 Br      1  MOL1       -0.0510
      7 C33         6.1340  -18.3900   -8.5990 C.ar    1  MOL1       -0.0430
      8  C6         7.2530  -16.3740   -9.6730 C.3     1  MOL1        0.0630
      9  C5         6.6190  -16.3280  -11.0750 C.3     1  MOL1        0.0510
     10  C1         3.4900  -14.0620  -11.5760 C.3     1  MOL1        0.0060
     11  N2         4.3460  -15.2280  -11.4120 N.am    1  MOL1       -0.3590
     12  C3         5.7640  -15.1060  -11.2520 C.2     1  MOL1        0.2220
     13  O4         6.3050  -13.9670  -11.2560 O.2     1  MOL1       -0.2750
     14  N7         8.5070  -17.1350   -9.6990 N.am    1  MOL1       -0.3460
     15  C8         9.4990  -17.0180   -8.6770 C.2     1  MOL1        0.2580
     16  O9         9.3230  -16.2320   -7.7090 O.2     1  MOL1       -0.2710
     17 C10        10.7520  -17.8390   -8.7380 C.3     1  MOL1        0.1670
     18 O11        10.8400  -18.7000   -7.6050 O.3     1  MOL1       -0.4800
     19 C12        11.4770  -19.9420   -7.6660 C.ar    1  MOL1        0.1660
     20 C13        10.8060  -21.0850   -8.1590 C.ar    1  MOL1        0.0120
     21 C21        11.5090  -22.2950   -8.2760 C.ar    1  MOL1       -0.0540
     22 C22        12.8390  -22.3840   -7.8660 C.ar    1  MOL1       -0.0580
     23 C23        13.4840  -21.2680   -7.3330 C.ar    1  MOL1       -0.0160
     24 C24        12.8070  -20.0400   -7.2240 C.ar    1  MOL1        0.1610
     25 C14         9.3490  -21.0400   -8.5630 C.3     1  MOL1        0.0280
     26 N15         9.1100  -21.9170   -9.7280 N.3     1  MOL1       -0.2870
     27 C16         8.7780  -21.1390  -10.9330 C.3     1  MOL1        0.0640
     28 C17         7.3660  -21.6870  -10.9890 C.3     1  MOL1        0.2720
     29 F18         7.1260  -22.4940  -12.0880 F       1  MOL1       -0.2040
     30 F19         6.3880  -20.7320  -10.7700 F       1  MOL1       -0.2040
     31 C20         7.7410  -22.4620   -9.7410 C.3     1  MOL1        0.0640
     32 O25        13.4190  -18.8950   -6.6930 O.3     1  MOL1       -0.4930
     33 C26        14.5550  -18.2520   -7.2610 C.3     1  MOL1        0.0780
@<TRIPOS>BOND
     1    29    28    1
     2    10    11    1
     3    11    12   am
     4    13    12    2
     5    12     9    1
     6     9     8    1
     7    28    27    1
     8    28    30    1
     9    28    31    1
    10    27    26    1
    11    31    26    1
    12    26    25    1
    13    14     8    1
    14    14    15   am
    15     8     1    1
    16    17    15    1
    17    17    18    1
    18     1     7   ar
    19     1     2   ar
    20    15    16    2
    21     7     5   ar
    22    25    20    1
    23    21    20   ar
    24    21    22   ar
    25    20    19   ar
    26     2     3   ar
    27    22    23   ar
    28     5     6    1
    29     5     4   ar
    30    19    18    1
    31    19    24   ar
    32    23    24   ar
    33    33    32    1
    34    24    32    1
    35     3     4   ar
