@<TRIPOS>MOLECULE
L3024_0_out.pdbqt
 33 35 0 0 0
SMALL
GASTEIGER

@<TRIPOS>ATOM
      1 C27        16.0570  -17.3340   -5.0110 C.ar    1  MOL1       -0.0240
      2 C28        16.0470  -15.9300   -5.0960 C.ar    1  MOL1       -0.0570
      3 C29        15.6830  -15.1560   -3.9890 C.ar    1  MOL1       -0.0610
      4 C30        15.3270  -15.7750   -2.7870 C.ar    1  MOL1       -0.0480
      5 C31        15.3350  -17.1710   -2.6880 C.ar    1  MOL1        0.0180
      6 Br32       14.8680  -18.0160   -1.0370 Br      1  MOL1       -0.0510
      7 C33        15.6930  -17.9480   -3.7950 C.ar    1  MOL1       -0.0430
      8  C6        16.3810  -18.1650   -6.2330 C.3     1  MOL1        0.0630
      9  C5        17.7700  -17.7830   -6.7770 C.3     1  MOL1        0.0510
     10  C1        19.6500  -21.1140   -7.5120 C.3     1  MOL1        0.0060
     11  N2        19.0390  -19.9910   -6.8160 N.am    1  MOL1       -0.3590
     12  C3        18.4000  -18.9230   -7.5240 C.2     1  MOL1        0.2220
     13  O4        18.3610  -18.9340   -8.7850 O.2     1  MOL1       -0.2750
     14  N7        15.3530  -17.9760   -7.2630 N.am    1  MOL1       -0.3460
     15  C8        14.1980  -18.8110   -7.3590 C.2     1  MOL1        0.2580
     16  O9        14.0320  -19.7610   -6.5490 O.2     1  MOL1       -0.2710
     17 C10        13.1640  -18.5580   -8.4150 C.3     1  MOL1        0.1670
     18 O11        11.8620  -18.8650   -7.9230 O.3     1  MOL1       -0.4800
     19 C12        10.7420  -18.1020   -8.2630 C.ar    1  MOL1        0.1660
     20 C13         9.9100  -18.4680   -9.3460 C.ar    1  MOL1        0.0120
     21 C21         8.7500  -17.7170   -9.6030 C.ar    1  MOL1       -0.0540
     22 C22         8.4470  -16.5960   -8.8310 C.ar    1  MOL1       -0.0580
     23 C23         9.2960  -16.2080   -7.7940 C.ar    1  MOL1       -0.0160
     24 C24        10.4530  -16.9560   -7.5050 C.ar    1  MOL1        0.1610
     25 C14        10.2350  -19.6460  -10.2380 C.3     1  MOL1        0.0280
     26 N15         9.8500  -20.9120   -9.5810 N.3     1  MOL1       -0.2870
     27 C16         9.2020  -21.8370  -10.5270 C.3     1  MOL1        0.0640
     28 C17         7.8710  -21.7570   -9.8060 C.3     1  MOL1        0.2720
     29 F18         7.4910  -22.9440   -9.2050 F       1  MOL1       -0.2040
     30 F19         6.8680  -21.1600  -10.5530 F       1  MOL1       -0.2040
     31 C20         8.5690  -20.7980   -8.8620 C.3     1  MOL1        0.0640
     32 O25        11.3330  -16.5990   -6.4730 O.3     1  MOL1       -0.4930
     33 C26        12.2960  -15.5540   -6.5610 C.3     1  MOL1        0.0780
@<TRIPOS>BOND
     1    30    28    1
     2    27    28    1
     3    27    26    1
     4    25    26    1
     5    25    20    1
     6    28    29    1
     7    28    31    1
     8    21    20   ar
     9    21    22   ar
    10    26    31    1
    11    20    19   ar
    12    22    23   ar
    13    13    12    2
    14    17    18    1
    15    17    15    1
    16    19    18    1
    17    19    24   ar
    18    23    24   ar
    19    12    11   am
    20    12     9    1
    21    10    11    1
    22    24    32    1
    23    15    14   am
    24    15    16    2
    25    14     8    1
    26     9     8    1
    27    33    32    1
    28     8     1    1
    29     2     1   ar
    30     2     3   ar
    31     1     7   ar
    32     3     4   ar
    33     7     5   ar
    34     4     5   ar
    35     5     6    1
