@<TRIPOS>MOLECULE
L3024_0_out.pdbqt
 33 35 0 0 0
SMALL
GASTEIGER

@<TRIPOS>ATOM
      1 C27         7.8060  -20.2130   -9.3880 C.ar    1  MOL1       -0.0240
      2 C28         8.7030  -21.0780  -10.0410 C.ar    1  MOL1       -0.0570
      3 C29         8.2330  -22.2190  -10.6990 C.ar    1  MOL1       -0.0610
      4 C30         6.8660  -22.5090  -10.7110 C.ar    1  MOL1       -0.0480
      5 C31         5.9620  -21.6550  -10.0680 C.ar    1  MOL1        0.0180
      6 Br32        4.0890  -22.0410  -10.1040 Br      1  MOL1       -0.0510
      7 C33         6.4290  -20.5160   -9.4050 C.ar    1  MOL1       -0.0430
      8  C6         8.3290  -19.0200   -8.6170 C.3     1  MOL1        0.0630
      9  C5         7.3150  -17.8640   -8.6830 C.3     1  MOL1        0.0510
     10  C1         6.9550  -17.1860  -12.5010 C.3     1  MOL1        0.0060
     11  N2         6.9310  -17.8380  -11.2000 N.am    1  MOL1       -0.3590
     12  C3         7.3610  -17.1670  -10.0110 C.2     1  MOL1        0.2220
     13  O4         7.7790  -15.9780  -10.0730 O.2     1  MOL1       -0.2750
     14  N7         9.6280  -18.5990   -9.1520 N.am    1  MOL1       -0.3460
     15  C8        10.7210  -18.2240   -8.3120 C.2     1  MOL1        0.2580
     16  O9        10.5920  -18.2360   -7.0590 O.2     1  MOL1       -0.2710
     17 C10        12.0370  -17.8270   -8.9110 C.3     1  MOL1        0.1670
     18 O11        13.0860  -17.9820   -7.9590 O.3     1  MOL1       -0.4800
     19 C12        14.3890  -17.5430   -8.2130 C.ar    1  MOL1        0.1660
     20 C13        14.8080  -16.2450   -7.8410 C.ar    1  MOL1        0.0120
     21 C21        16.1480  -15.8740   -8.0440 C.ar    1  MOL1       -0.0540
     22 C22        17.0440  -16.7560   -8.6480 C.ar    1  MOL1       -0.0580
     23 C23        16.6150  -18.0180   -9.0590 C.ar    1  MOL1       -0.0160
     24 C24        15.2820  -18.4200   -8.8490 C.ar    1  MOL1        0.1610
     25 C14        13.8530  -15.2430   -7.2320 C.3     1  MOL1        0.0280
     26 N15        13.4540  -15.6690   -5.8750 N.3     1  MOL1       -0.2870
     27 C16        13.4980  -14.5480   -4.9210 C.3     1  MOL1        0.0640
     28 C17        14.6330  -15.1680   -4.1310 C.3     1  MOL1        0.2720
     29 F18        14.2750  -15.5520   -2.8500 F       1  MOL1       -0.2040
     30 F19        15.8140  -14.4460   -4.1910 F       1  MOL1       -0.2040
     31 C20        14.5660  -16.2970   -5.1410 C.3     1  MOL1        0.0640
     32 O25        14.8120  -19.6790   -9.2490 O.3     1  MOL1       -0.4930
     33 C26        14.4320  -20.7180   -8.3530 C.3     1  MOL1        0.0780
@<TRIPOS>BOND
     1    10    11    1
     2    11    12   am
     3     4     3   ar
     4     4     5   ar
     5     3     2   ar
     6     6     5    1
     7    13    12    2
     8     5     7   ar
     9     2     1   ar
    10    12     9    1
    11     7     1   ar
    12     1     8    1
    13    32    24    1
    14    32    33    1
    15    14     8    1
    16    14    15   am
    17    23    24   ar
    18    23    22   ar
    19    17    15    1
    20    17    18    1
    21    24    19   ar
    22     9     8    1
    23    22    21   ar
    24    15    16    2
    25    19    18    1
    26    19    20   ar
    27    21    20   ar
    28    20    25    1
    29    25    26    1
    30    26    31    1
    31    26    27    1
    32    31    28    1
    33    27    28    1
    34    30    28    1
    35    28    29    1
