@<TRIPOS>MOLECULE
L3024_0_out.pdbqt
 33 35 0 0 0
SMALL
GASTEIGER

@<TRIPOS>ATOM
      1 C27        15.4810  -17.7910   -1.4900 C.ar    1  MOL1       -0.0240
      2 C28        14.8710  -16.8350   -0.6580 C.ar    1  MOL1       -0.0570
      3 C29        14.0670  -17.2400    0.4130 C.ar    1  MOL1       -0.0610
      4 C30        13.8640  -18.6000    0.6630 C.ar    1  MOL1       -0.0480
      5 C31        14.4690  -19.5610   -0.1550 C.ar    1  MOL1        0.0180
      6 Br32       14.2090  -21.4220    0.2020 Br      1  MOL1       -0.0510
      7 C33        15.2690  -19.1600   -1.2300 C.ar    1  MOL1       -0.0430
      8  C6        16.2900  -17.3450   -2.6890 C.3     1  MOL1        0.0630
      9  C5        16.4170  -15.8110   -2.6980 C.3     1  MOL1        0.0510
     10  C1        19.9690  -15.1740   -4.1660 C.3     1  MOL1        0.0060
     11  N2        18.5810  -15.5910   -4.0230 N.am    1  MOL1       -0.3590
     12  C3        17.8500  -15.3780   -2.8110 C.2     1  MOL1        0.2220
     13  O4        18.4080  -14.8200   -1.8260 O.2     1  MOL1       -0.2750
     14  N7        15.6640  -17.8180   -3.9290 N.am    1  MOL1       -0.3460
     15  C8        16.3850  -18.5460   -4.9250 C.2     1  MOL1        0.2580
     16  O9        17.6090  -18.7970   -4.7660 O.2     1  MOL1       -0.2710
     17 C10        15.6900  -19.0300   -6.1620 C.3     1  MOL1        0.1670
     18 O11        14.2790  -19.0570   -5.9630 O.3     1  MOL1       -0.4800
     19 C12        13.3790  -19.0330   -7.0320 C.ar    1  MOL1        0.1660
     20 C13        12.9000  -17.8100   -7.5560 C.ar    1  MOL1        0.0120
     21 C21        12.0590  -17.8300   -8.6810 C.ar    1  MOL1       -0.0540
     22 C22        11.6610  -19.0410   -9.2470 C.ar    1  MOL1       -0.0580
     23 C23        12.0940  -20.2480   -8.6970 C.ar    1  MOL1       -0.0160
     24 C24        12.9540  -20.2530   -7.5820 C.ar    1  MOL1        0.1610
     25 C14        13.2670  -16.4800   -6.9370 C.3     1  MOL1        0.0280
     26 N15        13.9850  -15.6370   -7.9150 N.3     1  MOL1       -0.2870
     27 C16        15.3690  -16.0970   -8.1140 C.3     1  MOL1        0.0640
     28 C17        15.9540  -14.8390   -7.5040 C.3     1  MOL1        0.2720
     29 F18        16.6460  -14.0530   -8.4080 F       1  MOL1       -0.2040
     30 F19        16.6320  -15.0580   -6.3160 F       1  MOL1       -0.2040
     31 C20        14.5150  -14.4050   -7.3040 C.3     1  MOL1        0.0640
     32 O25        13.4110  -21.4430   -7.0000 O.3     1  MOL1       -0.4930
     33 C26        12.5700  -22.5200   -6.6010 C.3     1  MOL1        0.0780
@<TRIPOS>BOND
     1    22    23   ar
     2    22    21   ar
     3    23    24   ar
     4    21    20   ar
     5    29    28    1
     6    27    26    1
     7    27    28    1
     8    26    31    1
     9    26    25    1
    10    24    19   ar
    11    24    32    1
    12    20    19   ar
    13    20    25    1
    14    28    31    1
    15    28    30    1
    16    19    18    1
    17    32    33    1
    18    17    18    1
    19    17    15    1
    20    15    16    2
    21    15    14   am
    22    10    11    1
    23    11    12   am
    24    14     8    1
    25    12     9    1
    26    12    13    2
    27     9     8    1
    28     8     1    1
    29     1     7   ar
    30     1     2   ar
    31     7     5   ar
    32     2     3   ar
    33     5     6    1
    34     5     4   ar
    35     3     4   ar
