@<TRIPOS>MOLECULE
L3024_0_out.pdbqt
 33 35 0 0 0
SMALL
GASTEIGER

@<TRIPOS>ATOM
      1 C27        18.4200  -18.2970   -9.2960 C.ar    1  MOL1       -0.0240
      2 C28        19.5390  -19.1340   -9.4590 C.ar    1  MOL1       -0.0570
      3 C29        20.4360  -18.9190  -10.5120 C.ar    1  MOL1       -0.0610
      4 C30        20.2250  -17.8690  -11.4090 C.ar    1  MOL1       -0.0480
      5 C31        19.1180  -17.0260  -11.2550 C.ar    1  MOL1        0.0180
      6 Br32       18.8430  -15.5750  -12.4710 Br      1  MOL1       -0.0510
      7 C33        18.2170  -17.2410  -10.2080 C.ar    1  MOL1       -0.0430
      8  C6        17.4170  -18.5800   -8.1990 C.3     1  MOL1        0.0630
      9  C5        16.0620  -18.9770   -8.8140 C.3     1  MOL1        0.0510
     10  C1        15.1970  -21.4550   -5.9360 C.3     1  MOL1        0.0060
     11  N2        15.9330  -20.5980   -6.8540 N.am    1  MOL1       -0.3590
     12  C3        15.2750  -19.8600   -7.8890 C.2     1  MOL1        0.2220
     13  O4        14.0250  -19.9460   -8.0300 O.2     1  MOL1       -0.2750
     14  N7        17.2660  -17.4070   -7.3320 N.am    1  MOL1       -0.3460
     15  C8        17.7270  -17.3860   -5.9790 C.2     1  MOL1        0.2580
     16  O9        18.2790  -18.4030   -5.4800 O.2     1  MOL1       -0.2710
     17 C10        17.5720  -16.1510   -5.1440 C.3     1  MOL1        0.1670
     18 O11        16.8880  -16.4520   -3.9300 O.3     1  MOL1       -0.4800
     19 C12        15.8430  -15.6570   -3.4510 C.ar    1  MOL1        0.1660
     20 C13        14.5830  -15.6400   -4.0920 C.ar    1  MOL1        0.0120
     21 C21        13.5380  -14.8880   -3.5300 C.ar    1  MOL1       -0.0540
     22 C22        13.7520  -14.1270   -2.3810 C.ar    1  MOL1       -0.0580
     23 C23        15.0100  -14.1050   -1.7790 C.ar    1  MOL1       -0.0160
     24 C24        16.0670  -14.8660   -2.3120 C.ar    1  MOL1        0.1610
     25 C14        14.3290  -16.4110   -5.3690 C.3     1  MOL1        0.0280
     26 N15        13.6680  -15.5480   -6.3690 N.3     1  MOL1       -0.2870
     27 C16        14.1230  -15.8550   -7.7350 C.3     1  MOL1        0.0640
     28 C17        14.7920  -14.5040   -7.8950 C.3     1  MOL1        0.2720
     29 F18        14.1910  -13.6960   -8.8450 F       1  MOL1       -0.2040
     30 F19        16.1710  -14.5740   -8.0090 F       1  MOL1       -0.2040
     31 C20        14.3170  -14.2300   -6.4820 C.3     1  MOL1        0.0640
     32 O25        17.3460  -14.8710   -1.7370 O.3     1  MOL1       -0.4930
     33 C26        17.6140  -15.1640   -0.3700 C.3     1  MOL1        0.0780
@<TRIPOS>BOND
     1     6     5    1
     2     4     5   ar
     3     4     3   ar
     4     5     7   ar
     5     3     2   ar
     6     7     1   ar
     7     2     1   ar
     8     1     8    1
     9    29    28    1
    10     9     8    1
    11     9    12    1
    12     8    14    1
    13    13    12    2
    14    30    28    1
    15    28    27    1
    16    28    31    1
    17    12    11   am
    18    27    26    1
    19    14    15   am
    20    11    10    1
    21    31    26    1
    22    26    25    1
    23    15    16    2
    24    15    17    1
    25    25    20    1
    26    17    18    1
    27    20    21   ar
    28    20    19   ar
    29    18    19    1
    30    21    22   ar
    31    19    24   ar
    32    22    23   ar
    33    24    23   ar
    34    24    32    1
    35    32    33    1
