@<TRIPOS>MOLECULE
L3024_0_out.pdbqt
 33 35 0 0 0
SMALL
GASTEIGER

@<TRIPOS>ATOM
      1 C27        16.3080  -15.9870   -4.3450 C.ar    1  MOL1       -0.0240
      2 C28        17.3590  -15.0540   -4.3950 C.ar    1  MOL1       -0.0570
      3 C29        18.6360  -15.4490   -4.8080 C.ar    1  MOL1       -0.0610
      4 C30        18.8760  -16.7760   -5.1740 C.ar    1  MOL1       -0.0480
      5 C31        17.8380  -17.7130   -5.1320 C.ar    1  MOL1        0.0180
      6 Br32       18.1620  -19.5250   -5.6550 Br      1  MOL1       -0.0510
      7 C33        16.5620  -17.3240   -4.7150 C.ar    1  MOL1       -0.0430
      8  C6        14.9480  -15.5690   -3.8280 C.3     1  MOL1        0.0630
      9  C5        14.6900  -16.2030   -2.4500 C.3     1  MOL1        0.0510
     10  C1        14.2070  -14.5120    1.0260 C.3     1  MOL1        0.0060
     11  N2        14.4410  -15.5050   -0.0130 N.am    1  MOL1       -0.3590
     12  C3        14.4350  -15.1590   -1.4020 C.2     1  MOL1        0.2220
     13  O4        14.2160  -13.9680   -1.7560 O.2     1  MOL1       -0.2750
     14  N7        13.9010  -15.9580   -4.7790 N.am    1  MOL1       -0.3460
     15  C8        13.3580  -15.0500   -5.7390 C.2     1  MOL1        0.2580
     16  O9        13.7660  -13.8590   -5.7890 O.2     1  MOL1       -0.2710
     17 C10        12.3070  -15.5070   -6.7060 C.3     1  MOL1        0.1670
     18 O11        12.2850  -16.9300   -6.7830 O.3     1  MOL1       -0.4800
     19 C12        12.3050  -17.6070   -8.0060 C.ar    1  MOL1        0.1660
     20 C13        11.1070  -18.0080   -8.6390 C.ar    1  MOL1        0.0120
     21 C21        11.1710  -18.6150   -9.9040 C.ar    1  MOL1       -0.0540
     22 C22        12.4030  -18.8640  -10.5090 C.ar    1  MOL1       -0.0580
     23 C23        13.5860  -18.5130   -9.8600 C.ar    1  MOL1       -0.0160
     24 C24        13.5470  -17.8850   -8.6010 C.ar    1  MOL1        0.1610
     25 C14         9.7560  -17.8030   -7.9900 C.3     1  MOL1        0.0280
     26 N15         8.7270  -17.5350   -9.0160 N.3     1  MOL1       -0.2870
     27 C16         8.1690  -16.1790   -8.8820 C.3     1  MOL1        0.0640
     28 C17         6.7970  -16.7010   -8.5030 C.3     1  MOL1        0.2720
     29 F18         5.8220  -16.4360   -9.4490 F       1  MOL1       -0.2040
     30 F19         6.4210  -16.3910   -7.2070 F       1  MOL1       -0.2040
     31 C20         7.4110  -18.0800   -8.6380 C.3     1  MOL1        0.0640
     32 O25        14.7130  -17.5170   -7.9140 O.3     1  MOL1       -0.4930
     33 C26        16.0310  -17.8720   -8.3190 C.3     1  MOL1        0.0780
@<TRIPOS>BOND
     1    22    21   ar
     2    22    23   ar
     3    21    20   ar
     4    23    24   ar
     5    29    28    1
     6    26    27    1
     7    26    31    1
     8    26    25    1
     9    27    28    1
    10    20    19   ar
    11    20    25    1
    12    31    28    1
    13    24    19   ar
    14    24    32    1
    15    28    30    1
    16    33    32    1
    17    19    18    1
    18    18    17    1
    19    17    15    1
    20    16    15    2
    21    15    14   am
    22     6     5    1
    23     4     5   ar
    24     4     3   ar
    25     5     7   ar
    26     3     2   ar
    27    14     8    1
    28     7     1   ar
    29     2     1   ar
    30     1     8    1
    31     8     9    1
    32     9    12    1
    33    13    12    2
    34    12    11   am
    35    11    10    1
