@<TRIPOS>MOLECULE
L3024_0_out.pdbqt
 33 35 0 0 0
SMALL
GASTEIGER

@<TRIPOS>ATOM
      1 C27         7.6250  -18.1850   -9.4380 C.ar    1  MOL1       -0.0240
      2 C28         7.6220  -17.3690  -10.5840 C.ar    1  MOL1       -0.0570
      3 C29         6.8170  -16.2250  -10.6360 C.ar    1  MOL1       -0.0610
      4 C30         6.0090  -15.8870   -9.5470 C.ar    1  MOL1       -0.0480
      5 C31         6.0050  -16.6890   -8.4000 C.ar    1  MOL1        0.0180
      6 Br32        4.9150  -16.2120   -6.9020 Br      1  MOL1       -0.0510
      7 C33         6.8040  -17.8350   -8.3470 C.ar    1  MOL1       -0.0430
      8  C6         8.4420  -19.4590   -9.4180 C.3     1  MOL1        0.0630
      9  C5         7.7740  -20.5000   -8.5020 C.3     1  MOL1        0.0510
     10  C1         4.4790  -21.9350  -10.0060 C.3     1  MOL1        0.0060
     11  N2         5.4210  -21.1070   -9.2660 N.am    1  MOL1       -0.3590
     12  C3         6.8270  -21.3790   -9.2670 C.2     1  MOL1        0.2220
     13  O4         7.2810  -22.3600   -9.9160 O.2     1  MOL1       -0.2750
     14  N7         9.8100  -19.1780   -8.9680 N.am    1  MOL1       -0.3460
     15  C8        10.8960  -18.9930   -9.8790 C.2     1  MOL1        0.2580
     16  O9        10.7050  -19.0780  -11.1210 O.2     1  MOL1       -0.2710
     17 C10        12.2700  -18.6810   -9.3660 C.3     1  MOL1        0.1670
     18 O11        12.3050  -18.7730   -7.9440 O.3     1  MOL1       -0.4800
     19 C12        13.2700  -19.5280   -7.2720 C.ar    1  MOL1        0.1660
     20 C13        14.4950  -18.9540   -6.8650 C.ar    1  MOL1        0.0120
     21 C21        15.4030  -19.7290   -6.1240 C.ar    1  MOL1       -0.0540
     22 C22        15.1210  -21.0640   -5.8330 C.ar    1  MOL1       -0.0580
     23 C23        13.9330  -21.6430   -6.2800 C.ar    1  MOL1       -0.0160
     24 C24        13.0000  -20.8810   -7.0070 C.ar    1  MOL1        0.1610
     25 C14        14.8590  -17.5260   -7.2070 C.3     1  MOL1        0.0280
     26 N15        14.3320  -16.6000   -6.1840 N.3     1  MOL1       -0.2870
     27 C16        13.2710  -15.7360   -6.7290 C.3     1  MOL1        0.0640
     28 C17        14.1080  -14.4830   -6.5680 C.3     1  MOL1        0.2720
     29 F18        13.6110  -13.5990   -5.6260 F       1  MOL1       -0.2040
     30 F19        14.4540  -13.8860   -7.7700 F       1  MOL1       -0.2040
     31 C20        15.1800  -15.4070   -6.0240 C.3     1  MOL1        0.0640
     32 O25        11.7950  -21.4260   -7.4740 O.3     1  MOL1       -0.4930
     33 C26        11.6860  -22.6690   -8.1600 C.3     1  MOL1        0.0780
@<TRIPOS>BOND
     1    16    15    2
     2     3     2   ar
     3     3     4   ar
     4     2     1   ar
     5    10    11    1
     6    13    12    2
     7    15    17    1
     8    15    14   am
     9     4     5   ar
    10     1     8    1
    11     1     7   ar
    12     8    14    1
    13     8     9    1
    14    17    18    1
    15    12    11   am
    16    12     9    1
    17     5     7   ar
    18     5     6    1
    19    33    32    1
    20    18    19    1
    21    30    28    1
    22    32    24    1
    23    19    24   ar
    24    19    20   ar
    25    25    20    1
    26    25    26    1
    27    24    23   ar
    28    20    21   ar
    29    27    28    1
    30    27    26    1
    31    28    31    1
    32    28    29    1
    33    23    22   ar
    34    26    31    1
    35    21    22   ar
