@<TRIPOS>MOLECULE
L3024_0_out.pdbqt
 33 35 0 0 0
SMALL
GASTEIGER

@<TRIPOS>ATOM
      1 C27         7.4780  -17.7400  -10.3550 C.ar    1  MOL1       -0.0240
      2 C28         7.8400  -18.3490  -11.5700 C.ar    1  MOL1       -0.0570
      3 C29         7.4490  -17.7830  -12.7890 C.ar    1  MOL1       -0.0610
      4 C30         6.6940  -16.6070  -12.8060 C.ar    1  MOL1       -0.0480
      5 C31         6.3300  -15.9900  -11.6040 C.ar    1  MOL1        0.0180
      6 Br32        5.3150  -14.3680  -11.6290 Br      1  MOL1       -0.0510
      7 C33         6.7150  -16.5550  -10.3840 C.ar    1  MOL1       -0.0430
      8  C6         7.8430  -18.3970   -9.0410 C.3     1  MOL1        0.0630
      9  C5         6.6020  -18.4870   -8.1340 C.3     1  MOL1        0.0510
     10  C1         4.3440  -21.5460   -7.2890 C.3     1  MOL1        0.0060
     11  N2         4.8400  -20.1840   -7.4280 N.am    1  MOL1       -0.3590
     12  C3         6.1240  -19.9030   -7.9950 C.2     1  MOL1        0.2220
     13  O4         6.8630  -20.8480   -8.3870 O.2     1  MOL1       -0.2750
     14  N7         8.9140  -17.6460   -8.3780 N.am    1  MOL1       -0.3460
     15  C8        10.2960  -17.9700   -8.5420 C.2     1  MOL1        0.2580
     16  O9        10.6390  -18.9390   -9.2700 O.2     1  MOL1       -0.2710
     17 C10        11.3530  -17.1530   -7.8610 C.3     1  MOL1        0.1670
     18 O11        12.6300  -17.4060   -8.4410 O.3     1  MOL1       -0.4800
     19 C12        13.7510  -17.7080   -7.6630 C.ar    1  MOL1        0.1660
     20 C13        14.2090  -19.0380   -7.5260 C.ar    1  MOL1        0.0120
     21 C21        15.3850  -19.2870   -6.8000 C.ar    1  MOL1       -0.0540
     22 C22        16.0690  -18.2410   -6.1800 C.ar    1  MOL1       -0.0580
     23 C23        15.5880  -16.9350   -6.2750 C.ar    1  MOL1       -0.0160
     24 C24        14.4230  -16.6590   -7.0140 C.ar    1  MOL1        0.1610
     25 C14        13.4650  -20.2040   -8.1390 C.3     1  MOL1        0.0280
     26 N15        13.5250  -21.3810   -7.2480 N.3     1  MOL1       -0.2870
     27 C16        13.7380  -22.6250   -8.0070 C.3     1  MOL1        0.0640
     28 C17        12.3710  -23.1680   -7.6400 C.3     1  MOL1        0.2720
     29 F18        12.4180  -24.2840   -6.8220 F       1  MOL1       -0.2040
     30 F19        11.5150  -23.3010   -8.7210 F       1  MOL1       -0.2040
     31 C20        12.1850  -21.8690   -6.8810 C.3     1  MOL1        0.0640
     32 O25        13.9060  -15.3610   -7.1330 O.3     1  MOL1       -0.4930
     33 C26        14.4910  -14.3300   -7.9220 C.3     1  MOL1        0.0780
@<TRIPOS>BOND
     1     4     3   ar
     2     4     5   ar
     3     3     2   ar
     4     6     5    1
     5     5     7   ar
     6     2     1   ar
     7     7     1   ar
     8     1     8    1
     9    16    15    2
    10     8    14    1
    11     8     9    1
    12    30    28    1
    13    15    14   am
    14    15    17    1
    15    18    17    1
    16    18    19    1
    17    13    12    2
    18    25    20    1
    19    25    26    1
    20     9    12    1
    21    27    28    1
    22    27    26    1
    23    12    11   am
    24    33    32    1
    25    19    20   ar
    26    19    24   ar
    27    28    31    1
    28    28    29    1
    29    20    21   ar
    30    11    10    1
    31    26    31    1
    32    32    24    1
    33    24    23   ar
    34    21    22   ar
    35    23    22   ar
