@<TRIPOS>MOLECULE
L3024_0_out.pdbqt
 33 35 0 0 0
SMALL
GASTEIGER

@<TRIPOS>ATOM
      1 C27        14.9850  -18.1390   -1.0740 C.ar    1  MOL1       -0.0240
      2 C28        15.2820  -19.3060   -1.8010 C.ar    1  MOL1       -0.0570
      3 C29        15.2520  -20.5570   -1.1750 C.ar    1  MOL1       -0.0610
      4 C30        14.9260  -20.6550    0.1800 C.ar    1  MOL1       -0.0480
      5 C31        14.6250  -19.5030    0.9150 C.ar    1  MOL1        0.0180
      6 Br32       14.1580  -19.6400    2.7650 Br      1  MOL1       -0.0510
      7 C33        14.6600  -18.2500    0.2940 C.ar    1  MOL1       -0.0430
      8  C6        15.0910  -16.7840   -1.7400 C.3     1  MOL1        0.0630
      9  C5        14.2280  -15.7570   -0.9840 C.3     1  MOL1        0.0510
     10  C1        16.6690  -13.7480    1.2920 C.3     1  MOL1        0.0060
     11  N2        15.8430  -14.8150    0.7460 N.am    1  MOL1       -0.3590
     12  C3        15.0620  -14.6330   -0.4400 C.2     1  MOL1        0.2220
     13  O4        15.0710  -13.5230   -1.0390 O.2     1  MOL1       -0.2750
     14  N7        14.6750  -16.8740   -3.1440 N.am    1  MOL1       -0.3460
     15  C8        15.3750  -16.2080   -4.1970 C.2     1  MOL1        0.2580
     16  O9        16.3850  -15.5010   -3.9400 O.2     1  MOL1       -0.2710
     17 C10        14.9230  -16.3550   -5.6190 C.3     1  MOL1        0.1670
     18 O11        15.2140  -17.6650   -6.1020 O.3     1  MOL1       -0.4800
     19 C12        15.7390  -17.8840   -7.3780 C.ar    1  MOL1        0.1660
     20 C13        14.9270  -18.3720   -8.4290 C.ar    1  MOL1        0.0120
     21 C21        15.4770  -18.5030   -9.7150 C.ar    1  MOL1       -0.0540
     22 C22        16.8190  -18.2020   -9.9450 C.ar    1  MOL1       -0.0580
     23 C23        17.6300  -17.7680   -8.8970 C.ar    1  MOL1       -0.0160
     24 C24        17.0970  -17.6100   -7.6040 C.ar    1  MOL1        0.1610
     25 C14        13.4820  -18.7600   -8.2050 C.3     1  MOL1        0.0280
     26 N15        12.5840  -17.6600   -8.6120 N.3     1  MOL1       -0.2870
     27 C16        11.7090  -17.2380   -7.5050 C.3     1  MOL1        0.0640
     28 C17        10.4580  -17.7180   -8.2140 C.3     1  MOL1        0.2720
     29 F18         9.6000  -16.6950   -8.5810 F       1  MOL1       -0.2040
     30 F19         9.8300  -18.7770   -7.5810 F       1  MOL1       -0.2040
     31 C20        11.3930  -18.1500   -9.3270 C.3     1  MOL1        0.0640
     32 O25        17.8790  -17.1780   -6.5230 O.3     1  MOL1       -0.4930
     33 C26        18.5360  -18.0470   -5.6050 C.3     1  MOL1        0.0780
@<TRIPOS>BOND
     1    22    21   ar
     2    22    23   ar
     3    21    20   ar
     4    31    26    1
     5    31    28    1
     6    23    24   ar
     7    26    25    1
     8    26    27    1
     9    29    28    1
    10    20    25    1
    11    20    19   ar
    12    28    30    1
    13    28    27    1
    14    24    19   ar
    15    24    32    1
    16    19    18    1
    17    32    33    1
    18    18    17    1
    19    17    15    1
    20    15    16    2
    21    15    14   am
    22    14     8    1
    23     2     3   ar
    24     2     1   ar
    25     8     1    1
    26     8     9    1
    27     3     4   ar
    28     1     7   ar
    29    13    12    2
    30     9    12    1
    31    12    11   am
    32     4     5   ar
    33     7     5   ar
    34    11    10    1
    35     5     6    1
