@<TRIPOS>MOLECULE
L3024_0_out.pdbqt
 33 35 0 0 0
SMALL
GASTEIGER

@<TRIPOS>ATOM
      1 C27        17.5550  -18.8050   -4.6460 C.ar    1  MOL1       -0.0240
      2 C28        18.0180  -17.4800   -4.5490 C.ar    1  MOL1       -0.0570
      3 C29        17.6480  -16.6790   -3.4620 C.ar    1  MOL1       -0.0610
      4 C30        16.8150  -17.1920   -2.4640 C.ar    1  MOL1       -0.0480
      5 C31        16.3500  -18.5090   -2.5470 C.ar    1  MOL1        0.0180
      6 Br32       15.2270  -19.2170   -1.1700 Br      1  MOL1       -0.0510
      7 C33        16.7130  -19.3110   -3.6340 C.ar    1  MOL1       -0.0430
      8  C6        17.8990  -19.6410   -5.8600 C.3     1  MOL1        0.0630
      9  C5        19.0990  -19.0240   -6.6010 C.3     1  MOL1        0.0510
     10  C1        20.3000  -22.1940   -8.5190 C.3     1  MOL1        0.0060
     11  N2        19.8430  -21.3020   -7.4640 N.am    1  MOL1       -0.3590
     12  C3        19.5800  -19.9160   -7.7080 C.2     1  MOL1        0.2220
     13  O4        19.7470  -19.4350   -8.8620 O.2     1  MOL1       -0.2750
     14  N7        16.7390  -19.7440   -6.7510 N.am    1  MOL1       -0.3460
     15  C8        16.0400  -20.9720   -6.9650 C.2     1  MOL1        0.2580
     16  O9        16.4170  -22.0260   -6.3880 O.2     1  MOL1       -0.2710
     17 C10        14.8440  -21.0160   -7.8680 C.3     1  MOL1        0.1670
     18 O11        13.7390  -20.3440   -7.2660 O.3     1  MOL1       -0.4800
     19 C12        12.6880  -19.8210   -8.0220 C.ar    1  MOL1        0.1660
     20 C13        12.7470  -18.5100   -8.5480 C.ar    1  MOL1        0.0120
     21 C21        11.7020  -18.0530   -9.3690 C.ar    1  MOL1       -0.0540
     22 C22        10.5960  -18.8640   -9.6250 C.ar    1  MOL1       -0.0580
     23 C23        10.5170  -20.1390   -9.0640 C.ar    1  MOL1       -0.0160
     24 C24        11.5600  -20.6260   -8.2550 C.ar    1  MOL1        0.1610
     25 C14        13.9040  -17.5830   -8.2490 C.3     1  MOL1        0.0280
     26 N15        13.6480  -16.8200   -7.0110 N.3     1  MOL1       -0.2870
     27 C16        14.0960  -15.4230   -7.1330 C.3     1  MOL1        0.0640
     28 C17        15.1770  -15.6010   -6.0850 C.3     1  MOL1        0.2720
     29 F18        14.9560  -14.8740   -4.9290 F       1  MOL1       -0.2040
     30 F19        16.4630  -15.4820   -6.5860 F       1  MOL1       -0.2040
     31 C20        14.6950  -17.0360   -5.9980 C.3     1  MOL1        0.0640
     32 O25        11.5180  -21.9000   -7.6710 O.3     1  MOL1       -0.4930
     33 C26        11.7330  -23.1170   -8.3780 C.3     1  MOL1        0.0780
@<TRIPOS>BOND
     1    22    21   ar
     2    22    23   ar
     3    21    20   ar
     4    23    24   ar
     5    13    12    2
     6    20    25    1
     7    20    19   ar
     8    10    11    1
     9    33    32    1
    10    24    19   ar
    11    24    32    1
    12    25    26    1
    13    19    18    1
    14    17    18    1
    15    17    15    1
    16    12    11   am
    17    12     9    1
    18    27    26    1
    19    27    28    1
    20    26    31    1
    21    15    14   am
    22    15    16    2
    23    14     8    1
    24     9     8    1
    25    30    28    1
    26    28    31    1
    27    28    29    1
    28     8     1    1
    29     1     2   ar
    30     1     7   ar
    31     2     3   ar
    32     7     5   ar
    33     3     4   ar
    34     5     4   ar
    35     5     6    1
