@<TRIPOS>MOLECULE
L3024_0_out.pdbqt
 33 35 0 0 0
SMALL
GASTEIGER

@<TRIPOS>ATOM
      1 C27        10.1330  -18.9370   -9.4360 C.ar    1  MOL1       -0.0240
      2 C28         9.9990  -18.9800  -10.8350 C.ar    1  MOL1       -0.0570
      3 C29         8.8660  -18.4430  -11.4550 C.ar    1  MOL1       -0.0610
      4 C30         7.8560  -17.8580  -10.6840 C.ar    1  MOL1       -0.0480
      5 C31         7.9790  -17.8060   -9.2910 C.ar    1  MOL1        0.0180
      6 Br32        6.6070  -16.9870   -8.2390 Br      1  MOL1       -0.0510
      7 C33         9.1080  -18.3470   -8.6680 C.ar    1  MOL1       -0.0430
      8  C6        11.3270  -19.5850   -8.7690 C.3     1  MOL1        0.0630
      9  C5        10.8640  -20.7440   -7.8680 C.3     1  MOL1        0.0510
     10  C1        12.4490  -24.2330   -8.5650 C.3     1  MOL1        0.0060
     11  N2        11.5150  -23.1170   -8.5240 N.am    1  MOL1       -0.3590
     12  C3        11.8450  -21.8800   -7.8840 C.2     1  MOL1        0.2220
     13  O4        12.9690  -21.7350   -7.3290 O.2     1  MOL1       -0.2750
     14  N7        12.0750  -18.5920   -7.9900 N.am    1  MOL1       -0.3460
     15  C8        13.4610  -18.3240   -8.2130 C.2     1  MOL1        0.2580
     16  O9        14.0950  -18.9560   -9.1000 O.2     1  MOL1       -0.2710
     17 C10        14.1710  -17.2800   -7.4060 C.3     1  MOL1        0.1670
     18 O11        14.6780  -17.8420   -6.1980 O.3     1  MOL1       -0.4800
     19 C12        15.9490  -17.5270   -5.7090 C.ar    1  MOL1        0.1660
     20 C13        17.0960  -18.2250   -6.1500 C.ar    1  MOL1        0.0120
     21 C21        18.3620  -17.8230   -5.6920 C.ar    1  MOL1       -0.0540
     22 C22        18.4840  -16.7780   -4.7770 C.ar    1  MOL1       -0.0580
     23 C23        17.3470  -16.1220   -4.3040 C.ar    1  MOL1       -0.0160
     24 C24        16.0700  -16.4950   -4.7640 C.ar    1  MOL1        0.1610
     25 C14        16.9980  -19.3980   -7.1010 C.3     1  MOL1        0.0280
     26 N15        17.5140  -20.6250   -6.4610 N.3     1  MOL1       -0.2870
     27 C16        18.6420  -21.1970   -7.2160 C.3     1  MOL1        0.0640
     28 C17        17.8580  -22.4400   -7.5880 C.3     1  MOL1        0.2720
     29 F18        18.3460  -23.5990   -7.0090 F       1  MOL1       -0.2040
     30 F19        17.6040  -22.5540   -8.9450 F       1  MOL1       -0.2040
     31 C20        16.7160  -21.8120   -6.8120 C.3     1  MOL1        0.0640
     32 O25        14.9020  -15.8620   -4.3130 O.3     1  MOL1       -0.4930
     33 C26        14.8690  -14.5870   -3.6810 C.3     1  MOL1        0.0780
@<TRIPOS>BOND
     1     3     2   ar
     2     3     4   ar
     3     2     1   ar
     4     4     5   ar
     5     1     8    1
     6     1     7   ar
     7     5     7   ar
     8     5     6    1
     9    16    15    2
    10    30    28    1
    11     8    14    1
    12     8     9    1
    13    10    11    1
    14    11    12   am
    15    15    14   am
    16    15    17    1
    17    12     9    1
    18    12    13    2
    19    28    27    1
    20    28    29    1
    21    28    31    1
    22    17    18    1
    23    27    26    1
    24    25    26    1
    25    25    20    1
    26    31    26    1
    27    18    19    1
    28    20    19   ar
    29    20    21   ar
    30    19    24   ar
    31    21    22   ar
    32    22    23   ar
    33    24    32    1
    34    24    23   ar
    35    32    33    1
