@<TRIPOS>MOLECULE
L3024_0_out.pdbqt
 33 35 0 0 0
SMALL
GASTEIGER

@<TRIPOS>ATOM
      1 C27         9.0320  -18.1080   -9.1420 C.ar    1  MOL1       -0.0240
      2 C28         8.4640  -17.1680   -8.2620 C.ar    1  MOL1       -0.0570
      3 C29         7.4870  -16.2750   -8.7150 C.ar    1  MOL1       -0.0610
      4 C30         7.0690  -16.3100  -10.0480 C.ar    1  MOL1       -0.0480
      5 C31         7.6240  -17.2420  -10.9330 C.ar    1  MOL1        0.0180
      6 Br32        7.0350  -17.3040  -12.7520 Br      1  MOL1       -0.0510
      7 C33         8.6040  -18.1330  -10.4850 C.ar    1  MOL1       -0.0430
      8  C6        10.1390  -19.0220   -8.6620 C.3     1  MOL1        0.0630
      9  C5         9.5400  -20.2450   -7.9440 C.3     1  MOL1        0.0510
     10  C1         9.0690  -22.6600  -10.9640 C.3     1  MOL1        0.0060
     11  N2         9.6560  -21.7280  -10.0110 N.am    1  MOL1       -0.3590
     12  C3         8.9030  -21.1960   -8.9160 C.2     1  MOL1        0.2220
     13  O4         7.6960  -21.5260   -8.7590 O.2     1  MOL1       -0.2750
     14  N7        11.0480  -18.2940   -7.7700 N.am    1  MOL1       -0.3460
     15  C8        12.2880  -17.7430   -8.2180 C.2     1  MOL1        0.2580
     16  O9        12.6470  -17.8800   -9.4180 O.2     1  MOL1       -0.2710
     17 C10        13.1680  -16.9850   -7.2700 C.3     1  MOL1        0.1670
     18 O11        13.9740  -17.8830   -6.5110 O.3     1  MOL1       -0.4800
     19 C12        15.3570  -17.9750   -6.6950 C.ar    1  MOL1        0.1660
     20 C13        16.2220  -16.9440   -6.2610 C.ar    1  MOL1        0.0120
     21 C21        17.6100  -17.1130   -6.3950 C.ar    1  MOL1       -0.0540
     22 C22        18.1290  -18.2620   -6.9930 C.ar    1  MOL1       -0.0580
     23 C23        17.2710  -19.2550   -7.4660 C.ar    1  MOL1       -0.0160
     24 C24        15.8780  -19.1170   -7.3250 C.ar    1  MOL1        0.1610
     25 C14        15.6930  -15.6620   -5.6570 C.3     1  MOL1        0.0280
     26 N15        15.2230  -15.8980   -4.2770 N.3     1  MOL1       -0.2870
     27 C16        13.9020  -15.2910   -4.0430 C.3     1  MOL1        0.0640
     28 C17        14.4550  -14.2930   -3.0450 C.3     1  MOL1        0.2720
     29 F18        14.0040  -14.4930   -1.7520 F       1  MOL1       -0.2040
     30 F19        14.3760  -12.9770   -3.4690 F       1  MOL1       -0.2040
     31 C20        15.8000  -14.9360   -3.3220 C.3     1  MOL1        0.0640
     32 O25        14.9820  -20.0910   -7.7880 O.3     1  MOL1       -0.4930
     33 C26        15.3160  -21.1170   -8.7160 C.3     1  MOL1        0.0780
@<TRIPOS>BOND
     1     6     5    1
     2    10    11    1
     3     5     7   ar
     4     5     4   ar
     5     7     1   ar
     6     4     3   ar
     7    11    12   am
     8    16    15    2
     9     1     8    1
    10     1     2   ar
    11    12    13    2
    12    12     9    1
    13    33    32    1
    14     3     2   ar
    15     8     9    1
    16     8    14    1
    17    15    14   am
    18    15    17    1
    19    32    24    1
    20    23    24   ar
    21    23    22   ar
    22    24    19   ar
    23    17    18    1
    24    22    21   ar
    25    19    18    1
    26    19    20   ar
    27    21    20   ar
    28    20    25    1
    29    25    26    1
    30    26    27    1
    31    26    31    1
    32    27    28    1
    33    30    28    1
    34    31    28    1
    35    28    29    1
