@<TRIPOS>MOLECULE
L3024_0_out.pdbqt
 33 35 0 0 0
SMALL
GASTEIGER

@<TRIPOS>ATOM
      1 C27        11.7310  -18.2980   -8.7720 C.ar    1  MOL1       -0.0240
      2 C28        12.0240  -18.5100  -10.1310 C.ar    1  MOL1       -0.0570
      3 C29        10.9950  -18.7640  -11.0450 C.ar    1  MOL1       -0.0610
      4 C30         9.6670  -18.8070  -10.6120 C.ar    1  MOL1       -0.0480
      5 C31         9.3620  -18.5940   -9.2630 C.ar    1  MOL1        0.0180
      6 Br32        7.5420  -18.6330   -8.6740 Br      1  MOL1       -0.0510
      7 C33        10.3890  -18.3460   -8.3450 C.ar    1  MOL1       -0.0430
      8  C6        12.8550  -18.0970   -7.7780 C.3     1  MOL1        0.0630
      9  C5        13.5540  -16.7500   -8.0380 C.3     1  MOL1        0.0510
     10  C1        14.9000  -15.9910   -4.4620 C.3     1  MOL1        0.0060
     11  N2        14.5900  -16.6690   -5.7120 N.am    1  MOL1       -0.3590
     12  C3        13.8490  -16.0270   -6.7560 C.2     1  MOL1        0.2220
     13  O4        13.4410  -14.8430   -6.6050 O.2     1  MOL1       -0.2750
     14  N7        13.8150  -19.2020   -7.8660 N.am    1  MOL1       -0.3460
     15  C8        13.7370  -20.3570   -7.0290 C.2     1  MOL1        0.2580
     16  O9        12.8260  -20.4550   -6.1640 O.2     1  MOL1       -0.2710
     17 C10        14.7300  -21.4710   -7.1780 C.3     1  MOL1        0.1670
     18 O11        15.6550  -21.4640   -6.0940 O.3     1  MOL1       -0.4800
     19 C12        16.6400  -20.4810   -5.9670 C.ar    1  MOL1        0.1660
     20 C13        16.6540  -19.5990   -4.8620 C.ar    1  MOL1        0.0120
     21 C21        17.7080  -18.6790   -4.7330 C.ar    1  MOL1       -0.0540
     22 C22        18.7030  -18.6010   -5.7080 C.ar    1  MOL1       -0.0580
     23 C23        18.6600  -19.4380   -6.8230 C.ar    1  MOL1       -0.0160
     24 C24        17.6250  -20.3820   -6.9630 C.ar    1  MOL1        0.1610
     25 C14        15.5640  -19.6170   -3.8140 C.3     1  MOL1        0.0280
     26 N15        16.1480  -19.7550   -2.4640 N.3     1  MOL1       -0.2870
     27 C16        15.1730  -20.2990   -1.5040 C.3     1  MOL1        0.0640
     28 C17        15.1350  -19.0130   -0.7020 C.3     1  MOL1        0.2720
     29 F18        15.6620  -19.1370    0.5720 F       1  MOL1       -0.2040
     30 F19        13.9110  -18.3660   -0.7430 F       1  MOL1       -0.2040
     31 C20        16.1290  -18.4850   -1.7180 C.3     1  MOL1        0.0640
     32 O25        17.5450  -21.2410   -8.0690 O.3     1  MOL1       -0.4930
     33 C26        18.3330  -22.4150   -8.2360 C.3     1  MOL1        0.0780
@<TRIPOS>BOND
     1     3     4   ar
     2     3     2   ar
     3     4     5   ar
     4     2     1   ar
     5     5     6    1
     6     5     7   ar
     7     1     7   ar
     8     1     8    1
     9    33    32    1
    10    32    24    1
    11     9     8    1
    12     9    12    1
    13    14     8    1
    14    14    15   am
    15    17    15    1
    16    17    18    1
    17    15    16    2
    18    24    23   ar
    19    24    19   ar
    20    23    22   ar
    21    12    13    2
    22    12    11   am
    23    18    19    1
    24    19    20   ar
    25    11    10    1
    26    22    21   ar
    27    20    21   ar
    28    20    25    1
    29    25    26    1
    30    26    31    1
    31    26    27    1
    32    31    28    1
    33    27    28    1
    34    30    28    1
    35    28    29    1
