@<TRIPOS>MOLECULE
L3024_0_out.pdbqt
 33 35 0 0 0
SMALL
GASTEIGER

@<TRIPOS>ATOM
      1 C27         8.0500  -19.6930   -9.3840 C.ar    1  MOL1       -0.0240
      2 C28         6.7310  -19.7650   -8.9010 C.ar    1  MOL1       -0.0570
      3 C29         6.1330  -21.0060   -8.6570 C.ar    1  MOL1       -0.0610
      4 C30         6.8440  -22.1850   -8.8920 C.ar    1  MOL1       -0.0480
      5 C31         8.1580  -22.1280   -9.3700 C.ar    1  MOL1        0.0180
      6 Br32        9.1390  -23.7430   -9.6710 Br      1  MOL1       -0.0510
      7 C33         8.7580  -20.8890   -9.6200 C.ar    1  MOL1       -0.0430
      8  C6         8.6640  -18.3500   -9.7140 C.3     1  MOL1        0.0630
      9  C5         8.0200  -17.7750  -10.9890 C.3     1  MOL1        0.0510
     10  C1         5.4050  -14.9220  -11.4340 C.3     1  MOL1        0.0060
     11  N2         6.3420  -16.0010  -11.7130 N.am    1  MOL1       -0.3590
     12  C3         7.0680  -16.6580  -10.6690 C.2     1  MOL1        0.2220
     13  O4         6.9110  -16.3040   -9.4690 O.2     1  MOL1       -0.2750
     14  N7        10.1150  -18.4820   -9.8830 N.am    1  MOL1       -0.3460
     15  C8        11.0520  -17.8780   -8.9880 C.2     1  MOL1        0.2580
     16  O9        10.6470  -17.1920   -8.0130 O.2     1  MOL1       -0.2710
     17 C10        12.5250  -18.0670   -9.1920 C.3     1  MOL1        0.1670
     18 O11        13.2400  -17.7270   -8.0070 O.3     1  MOL1       -0.4800
     19 C12        14.4070  -16.9580   -8.0400 C.ar    1  MOL1        0.1660
     20 C13        15.6340  -17.5090   -8.4750 C.ar    1  MOL1        0.0120
     21 C21        16.7630  -16.6790   -8.5670 C.ar    1  MOL1       -0.0540
     22 C22        16.6900  -15.3380   -8.1890 C.ar    1  MOL1       -0.0580
     23 C23        15.4900  -14.8090   -7.7120 C.ar    1  MOL1       -0.0160
     24 C24        14.3400  -15.6160   -7.6300 C.ar    1  MOL1        0.1610
     25 C14        15.7650  -18.9700   -8.8420 C.3     1  MOL1        0.0280
     26 N15        16.1870  -19.7610   -7.6680 N.3     1  MOL1       -0.2870
     27 C16        17.0040  -20.9220   -8.0620 C.3     1  MOL1        0.0640
     28 C17        15.9530  -21.9110   -7.5980 C.3     1  MOL1        0.2720
     29 F18        16.3480  -22.6720   -6.5110 F       1  MOL1       -0.2040
     30 F19        15.3910  -22.6510   -8.6260 F       1  MOL1       -0.2040
     31 C20        15.1370  -20.6910   -7.2180 C.3     1  MOL1        0.0640
     32 O25        13.1160  -15.1230   -7.1560 O.3     1  MOL1       -0.4930
     33 C26        12.6420  -15.2890   -5.8240 C.3     1  MOL1        0.0780
@<TRIPOS>BOND
     1    11    10    1
     2    11    12   am
     3     9    12    1
     4     9     8    1
     5    12    13    2
     6    14     8    1
     7    14    15   am
     8     8     1    1
     9     6     5    1
    10     7     1   ar
    11     7     5   ar
    12     1     2   ar
    13     5     4   ar
    14    17    15    1
    15    17    18    1
    16    15    16    2
    17     2     3   ar
    18     4     3   ar
    19    25    20    1
    20    25    26    1
    21    30    28    1
    22    21    20   ar
    23    21    22   ar
    24    20    19   ar
    25    22    23   ar
    26    27    26    1
    27    27    28    1
    28    19    18    1
    29    19    24   ar
    30    23    24   ar
    31    26    31    1
    32    24    32    1
    33    28    31    1
    34    28    29    1
    35    32    33    1
