@<TRIPOS>MOLECULE
L3024_0_out.pdbqt
 33 35 0 0 0
SMALL
GASTEIGER

@<TRIPOS>ATOM
      1 C27        15.0760  -18.6450   -7.8580 C.ar    1  MOL1       -0.0240
      2 C28        16.3360  -18.7920   -8.4670 C.ar    1  MOL1       -0.0570
      3 C29        17.0670  -17.6670   -8.8600 C.ar    1  MOL1       -0.0610
      4 C30        16.5490  -16.3860   -8.6510 C.ar    1  MOL1       -0.0480
      5 C31        15.2990  -16.2250   -8.0440 C.ar    1  MOL1        0.0180
      6 Br32       14.6010  -14.4700   -7.7390 Br      1  MOL1       -0.0510
      7 C33        14.5630  -17.3480   -7.6540 C.ar    1  MOL1       -0.0430
      8  C6        14.2600  -19.8690   -7.5020 C.3     1  MOL1        0.0630
      9  C5        15.1290  -21.1340   -7.6150 C.3     1  MOL1        0.0510
     10  C1        12.7080  -23.8550   -6.2330 C.3     1  MOL1        0.0060
     11  N2        13.5300  -22.6580   -6.3480 N.am    1  MOL1       -0.3590
     12  C3        14.3000  -22.3820   -7.5230 C.2     1  MOL1        0.2220
     13  O4        14.2830  -23.1870   -8.4940 O.2     1  MOL1       -0.2750
     14  N7        13.0860  -19.9690   -8.3750 N.am    1  MOL1       -0.3460
     15  C8        11.7490  -19.8570   -7.8830 C.2     1  MOL1        0.2580
     16  O9        11.5380  -19.6750   -6.6540 O.2     1  MOL1       -0.2710
     17 C10        10.5850  -19.9400   -8.8240 C.3     1  MOL1        0.1670
     18 O11         9.5290  -20.7050   -8.2450 O.3     1  MOL1       -0.4800
     19 C12         8.5070  -21.2610   -9.0180 C.ar    1  MOL1        0.1660
     20 C13         7.2970  -20.5650   -9.2410 C.ar    1  MOL1        0.0120
     21 C21         6.3290  -21.1280  -10.0890 C.ar    1  MOL1       -0.0540
     22 C22         6.5360  -22.3800  -10.6680 C.ar    1  MOL1       -0.0580
     23 C23         7.7100  -23.0880  -10.4070 C.ar    1  MOL1       -0.0160
     24 C24         8.7030  -22.5350   -9.5760 C.ar    1  MOL1        0.1610
     25 C14         7.0140  -19.2300   -8.5880 C.3     1  MOL1        0.0280
     26 N15         6.5880  -18.2420   -9.5990 N.3     1  MOL1       -0.2870
     27 C16         7.7330  -17.7310  -10.3730 C.3     1  MOL1        0.0640
     28 C17         7.5810  -16.3310   -9.8140 C.3     1  MOL1        0.2720
     29 F18         7.2020  -15.3930  -10.7590 F       1  MOL1       -0.2040
     30 F19         8.6420  -15.9300   -9.0190 F       1  MOL1       -0.2040
     31 C20         6.4170  -16.8970   -9.0240 C.3     1  MOL1        0.0640
     32 O25         9.8960  -23.2140   -9.2880 O.3     1  MOL1       -0.4930
     33 C26        10.2530  -24.4800   -9.8320 C.3     1  MOL1        0.0780
@<TRIPOS>BOND
     1    29    28    1
     2    22    23   ar
     3    22    21   ar
     4    23    24   ar
     5    27    28    1
     6    27    26    1
     7    21    20   ar
     8    33    32    1
     9    28    31    1
    10    28    30    1
    11    26    31    1
    12    26    25    1
    13    24    32    1
    14    24    19   ar
    15    20    19   ar
    16    20    25    1
    17    19    18    1
    18     3     4   ar
    19     3     2   ar
    20    17    18    1
    21    17    15    1
    22     4     5   ar
    23    13    12    2
    24     2     1   ar
    25    14    15   am
    26    14     8    1
    27     5     6    1
    28     5     7   ar
    29    15    16    2
    30     1     7   ar
    31     1     8    1
    32     9    12    1
    33     9     8    1
    34    12    11   am
    35    11    10    1
