@<TRIPOS>MOLECULE
L3024_0_out.pdbqt
 33 35 0 0 0
SMALL
GASTEIGER

@<TRIPOS>ATOM
      1 C27         7.2740  -18.7080   -9.1740 C.ar    1  MOL1       -0.0240
      2 C28         7.5730  -18.0110  -10.3590 C.ar    1  MOL1       -0.0570
      3 C29         7.0530  -16.7310  -10.5780 C.ar    1  MOL1       -0.0610
      4 C30         6.2300  -16.1350   -9.6180 C.ar    1  MOL1       -0.0480
      5 C31         5.9270  -16.8160   -8.4340 C.ar    1  MOL1        0.0180
      6 Br32        4.8180  -15.9900   -7.1120 Br      1  MOL1       -0.0510
      7 C33         6.4410  -18.0980   -8.2140 C.ar    1  MOL1       -0.0430
      8  C6         7.7800  -20.1200   -8.9780 C.3     1  MOL1        0.0630
      9  C5         6.6810  -20.9920   -8.3430 C.3     1  MOL1        0.0510
     10  C1         3.4970  -22.3070  -10.1610 C.3     1  MOL1        0.0060
     11  N2         4.3850  -21.7260   -9.1640 N.am    1  MOL1       -0.3590
     12  C3         5.7940  -21.6050   -9.3870 C.2     1  MOL1        0.2220
     13  O4         6.3000  -22.0110  -10.4690 O.2     1  MOL1       -0.2750
     14  N7         8.9840  -20.1160   -8.1390 N.am    1  MOL1       -0.3460
     15  C8        10.1810  -20.8030   -8.5090 C.2     1  MOL1        0.2580
     16  O9        10.2330  -21.4550   -9.5860 O.2     1  MOL1       -0.2710
     17 C10        11.3930  -20.7450   -7.6270 C.3     1  MOL1        0.1670
     18 O11        12.4030  -19.9320   -8.2200 O.3     1  MOL1       -0.4800
     19 C12        13.0280  -18.8970   -7.5190 C.ar    1  MOL1        0.1660
     20 C13        14.1800  -19.1370   -6.7350 C.ar    1  MOL1        0.0120
     21 C21        14.8220  -18.0540   -6.1120 C.ar    1  MOL1       -0.0540
     22 C22        14.3040  -16.7640   -6.2240 C.ar    1  MOL1       -0.0580
     23 C23        13.1390  -16.5370   -6.9570 C.ar    1  MOL1       -0.0160
     24 C24        12.4890  -17.6030   -7.6070 C.ar    1  MOL1        0.1610
     25 C14        14.7400  -20.5300   -6.5470 C.3     1  MOL1        0.0280
     26 N15        15.7060  -20.8460   -7.6190 N.3     1  MOL1       -0.2870
     27 C16        15.6730  -22.2750   -7.9730 C.3     1  MOL1        0.0640
     28 C17        17.0800  -22.5100   -7.4600 C.3     1  MOL1        0.2720
     29 F18        17.9890  -22.8280   -8.4540 F       1  MOL1       -0.2040
     30 F19        17.1390  -23.3480   -6.3570 F       1  MOL1       -0.2040
     31 C20        17.0700  -21.0380   -7.0970 C.3     1  MOL1        0.0640
     32 O25        11.3160  -17.4180   -8.3520 O.3     1  MOL1       -0.4930
     33 C26        10.1130  -16.8600   -7.8350 C.3     1  MOL1        0.0780
@<TRIPOS>BOND
     1     3     2   ar
     2     3     4   ar
     3    13    12    2
     4     2     1   ar
     5    10    11    1
     6     4     5   ar
     7    16    15    2
     8    12    11   am
     9    12     9    1
    10     1     8    1
    11     1     7   ar
    12     8     9    1
    13     8    14    1
    14    15    14   am
    15    15    17    1
    16    29    28    1
    17     5     7   ar
    18     5     6    1
    19    32    33    1
    20    32    24    1
    21    18    17    1
    22    18    19    1
    23    27    26    1
    24    27    28    1
    25    26    31    1
    26    26    25    1
    27    24    19   ar
    28    24    23   ar
    29    19    20   ar
    30    28    31    1
    31    28    30    1
    32    23    22   ar
    33    20    25    1
    34    20    21   ar
    35    22    21   ar
