@<TRIPOS>MOLECULE
L3024_0_out.pdbqt
 33 35 0 0 0
SMALL
GASTEIGER

@<TRIPOS>ATOM
      1 C27        17.0750  -19.7110   -5.4400 C.ar    1  MOL1       -0.0240
      2 C28        18.1300  -18.8380   -5.7640 C.ar    1  MOL1       -0.0570
      3 C29        18.4160  -17.7390   -4.9460 C.ar    1  MOL1       -0.0610
      4 C30        17.6530  -17.5010   -3.7990 C.ar    1  MOL1       -0.0480
      5 C31        16.6030  -18.3640   -3.4640 C.ar    1  MOL1        0.0180
      6 Br32       15.5740  -18.0490   -1.8820 Br      1  MOL1       -0.0510
      7 C33        16.3110  -19.4600   -4.2820 C.ar    1  MOL1       -0.0430
      8  C6        16.7270  -20.8540   -6.3680 C.3     1  MOL1        0.0630
      9  C5        17.5080  -20.7200   -7.6870 C.3     1  MOL1        0.0510
     10  C1        18.9430  -23.9660   -9.2940 C.3     1  MOL1        0.0060
     11  N2        18.1090  -22.8040   -9.0230 N.am    1  MOL1       -0.3590
     12  C3        18.3820  -21.9160   -7.9340 C.2     1  MOL1        0.2220
     13  O4        19.3640  -22.1330   -7.1730 O.2     1  MOL1       -0.2750
     14  N7        15.2820  -20.8790   -6.6230 N.am    1  MOL1       -0.3460
     15  C8        14.6460  -19.9750   -7.5290 C.2     1  MOL1        0.2580
     16  O9        15.3230  -19.1040   -8.1380 O.2     1  MOL1       -0.2710
     17 C10        13.1690  -20.0600   -7.7730 C.3     1  MOL1        0.1670
     18 O11        12.7410  -18.9940   -8.6170 O.3     1  MOL1       -0.4800
     19 C12        11.6630  -18.1700   -8.2820 C.ar    1  MOL1        0.1660
     20 C13        11.8180  -17.0970   -7.3740 C.ar    1  MOL1        0.0120
     21 C21        10.7280  -16.2470   -7.1260 C.ar    1  MOL1       -0.0540
     22 C22         9.4930  -16.4840   -7.7300 C.ar    1  MOL1       -0.0580
     23 C23         9.3290  -17.5730   -8.5860 C.ar    1  MOL1       -0.0160
     24 C24        10.4120  -18.4270   -8.8650 C.ar    1  MOL1        0.1610
     25 C14        13.1270  -16.8410   -6.6600 C.3     1  MOL1        0.0280
     26 N15        13.6970  -15.5440   -7.0780 N.3     1  MOL1       -0.2870
     27 C16        14.5430  -15.6860   -8.2760 C.3     1  MOL1        0.0640
     28 C17        15.8030  -15.3140   -7.5190 C.3     1  MOL1        0.2720
     29 F18        16.3570  -14.1100   -7.9190 F       1  MOL1       -0.2040
     30 F19        16.7200  -16.3480   -7.4210 F       1  MOL1       -0.2040
     31 C20        14.9010  -15.1920   -6.3070 C.3     1  MOL1        0.0640
     32 O25        10.2880  -19.5330   -9.7190 O.3     1  MOL1       -0.4930
     33 C26         9.9600  -20.8500   -9.2890 C.3     1  MOL1        0.0780
@<TRIPOS>BOND
     1    32    33    1
     2    32    24    1
     3    10    11    1
     4    11    12   am
     5    24    23   ar
     6    24    19   ar
     7    18    19    1
     8    18    17    1
     9    23    22   ar
    10    19    20   ar
    11    27    28    1
    12    27    26    1
    13    16    15    2
    14    12     9    1
    15    12    13    2
    16    29    28    1
    17    17    15    1
    18    22    21   ar
    19     9     8    1
    20    15    14   am
    21    28    30    1
    22    28    31    1
    23    20    21   ar
    24    20    25    1
    25    26    25    1
    26    26    31    1
    27    14     8    1
    28     8     1    1
    29     2     1   ar
    30     2     3   ar
    31     1     7   ar
    32     3     4   ar
    33     7     5   ar
    34     4     5   ar
    35     5     6    1
