@<TRIPOS>MOLECULE
L3024_0_out.pdbqt
 33 35 0 0 0
SMALL
GASTEIGER

@<TRIPOS>ATOM
      1 C27        13.1960  -20.1360   -6.9130 C.ar    1  MOL1       -0.0240
      2 C28        14.5270  -19.9900   -6.4810 C.ar    1  MOL1       -0.0570
      3 C29        15.2520  -21.1010   -6.0360 C.ar    1  MOL1       -0.0610
      4 C30        14.6560  -22.3650   -6.0160 C.ar    1  MOL1       -0.0480
      5 C31        13.3340  -22.5240   -6.4460 C.ar    1  MOL1        0.0180
      6 Br32       12.5270  -24.2590   -6.4400 Br      1  MOL1       -0.0510
      7 C33        12.6040  -21.4150   -6.8870 C.ar    1  MOL1       -0.0430
      8  C6        12.3950  -18.9190   -7.3240 C.3     1  MOL1        0.0630
      9  C5        11.5310  -19.2470   -8.5550 C.3     1  MOL1        0.0510
     10  C1         8.4200  -16.9090   -8.7150 C.3     1  MOL1        0.0060
     11  N2         9.7740  -17.4270   -8.8480 N.am    1  MOL1       -0.3590
     12  C3        10.1280  -18.7380   -8.3940 C.2     1  MOL1        0.2220
     13  O4         9.2590  -19.4780   -7.8570 O.2     1  MOL1       -0.2750
     14  N7        13.2920  -17.7930   -7.6080 N.am    1  MOL1       -0.3460
     15  C8        13.0290  -16.4650   -7.1500 C.2     1  MOL1        0.2580
     16  O9        11.9890  -16.2180   -6.4820 O.2     1  MOL1       -0.2710
     17 C10        13.9920  -15.3560   -7.4460 C.3     1  MOL1        0.1670
     18 O11        14.8630  -15.1420   -6.3370 O.3     1  MOL1       -0.4800
     19 C12        15.7430  -16.1280   -5.8850 C.ar    1  MOL1        0.1660
     20 C13        15.7080  -16.5810   -4.5460 C.ar    1  MOL1        0.0120
     21 C21        16.5570  -17.6300   -4.1550 C.ar    1  MOL1       -0.0540
     22 C22        17.4590  -18.1870   -5.0620 C.ar    1  MOL1       -0.0580
     23 C23        17.5270  -17.7040   -6.3690 C.ar    1  MOL1       -0.0160
     24 C24        16.6730  -16.6680   -6.7900 C.ar    1  MOL1        0.1610
     25 C14        14.7820  -15.9660   -3.5210 C.3     1  MOL1        0.0280
     26 N15        15.3880  -14.7500   -2.9420 N.3     1  MOL1       -0.2870
     27 C16        15.9090  -14.9970   -1.5860 C.3     1  MOL1        0.0640
     28 C17        14.8950  -14.0690   -0.9480 C.3     1  MOL1        0.2720
     29 F18        15.4560  -12.9360   -0.3840 F       1  MOL1       -0.2040
     30 F19        13.9880  -14.7160   -0.1240 F       1  MOL1       -0.2040
     31 C20        14.3790  -13.8500   -2.3570 C.3     1  MOL1        0.0640
     32 O25        16.7100  -16.1540   -8.0940 O.3     1  MOL1       -0.4930
     33 C26        17.5010  -16.6910   -9.1490 C.3     1  MOL1        0.0780
@<TRIPOS>BOND
     1    33    32    1
     2    11    10    1
     3    11    12   am
     4     9    12    1
     5     9     8    1
     6    12    13    2
     7    32    24    1
     8    14     8    1
     9    14    15   am
    10    17    15    1
    11    17    18    1
    12     8     1    1
    13    15    16    2
    14     1     7   ar
    15     1     2   ar
    16     7     5   ar
    17    24    23   ar
    18    24    19   ar
    19     2     3   ar
    20     5     6    1
    21     5     4   ar
    22    23    22   ar
    23    18    19    1
    24     3     4   ar
    25    19    20   ar
    26    22    21   ar
    27    20    21   ar
    28    20    25    1
    29    25    26    1
    30    26    31    1
    31    26    27    1
    32    31    28    1
    33    27    28    1
    34    28    29    1
    35    28    30    1
