@<TRIPOS>MOLECULE
L3024_0_out.pdbqt
 33 35 0 0 0
SMALL
GASTEIGER

@<TRIPOS>ATOM
      1 C27         6.6920  -17.7920   -9.0270 C.ar    1  MOL1       -0.0240
      2 C28         5.9550  -16.9040   -8.2220 C.ar    1  MOL1       -0.0570
      3 C29         5.0020  -17.3900   -7.3210 C.ar    1  MOL1       -0.0610
      4 C30         4.7750  -18.7650   -7.2150 C.ar    1  MOL1       -0.0480
      5 C31         5.5030  -19.6590   -8.0070 C.ar    1  MOL1        0.0180
      6 Br32        5.2060  -21.5420   -7.8450 Br      1  MOL1       -0.0510
      7 C33         6.4530  -19.1770   -8.9130 C.ar    1  MOL1       -0.0430
      8  C6         7.6690  -17.2540  -10.0500 C.3     1  MOL1        0.0630
      9  C5         7.2670  -17.7240  -11.4600 C.3     1  MOL1        0.0510
     10  C1         5.2920  -14.4770  -12.3140 C.3     1  MOL1        0.0060
     11  N2         5.9160  -15.5680  -11.5800 N.am    1  MOL1       -0.3590
     12  C3         6.6250  -16.6180  -12.2470 C.2     1  MOL1        0.2220
     13  O4         6.7180  -16.6190  -13.5050 O.2     1  MOL1       -0.2750
     14  N7         9.0320  -17.6900   -9.7290 N.am    1  MOL1       -0.3460
     15  C8         9.7830  -17.1340   -8.6480 C.2     1  MOL1        0.2580
     16  O9         9.2860  -16.2260   -7.9310 O.2     1  MOL1       -0.2710
     17 C10        11.1640  -17.6350   -8.3470 C.3     1  MOL1        0.1670
     18 O11        11.1150  -18.6840   -7.3840 O.3     1  MOL1       -0.4800
     19 C12        12.0630  -19.7110   -7.3570 C.ar    1  MOL1        0.1660
     20 C13        13.4010  -19.4610   -6.9780 C.ar    1  MOL1        0.0120
     21 C21        14.3010  -20.5370   -6.8890 C.ar    1  MOL1       -0.0540
     22 C22        13.8930  -21.8300   -7.2170 C.ar    1  MOL1       -0.0580
     23 C23        12.5850  -22.0660   -7.6390 C.ar    1  MOL1       -0.0160
     24 C24        11.6600  -21.0080   -7.7170 C.ar    1  MOL1        0.1610
     25 C14        13.8940  -18.0650   -6.6670 C.3     1  MOL1        0.0280
     26 N15        14.6480  -17.5170   -7.8130 N.3     1  MOL1       -0.2870
     27 C16        16.0630  -17.2920   -7.4720 C.3     1  MOL1        0.0640
     28 C17        15.9330  -15.7880   -7.6100 C.3     1  MOL1        0.2720
     29 F18        16.6540  -15.2630   -8.6680 F       1  MOL1       -0.2040
     30 F19        16.1060  -15.1020   -6.4180 F       1  MOL1       -0.2040
     31 C20        14.4790  -16.0590   -7.9430 C.3     1  MOL1        0.0640
     32 O25        10.3370  -21.2030   -8.1370 O.3     1  MOL1       -0.4930
     33 C26         9.8680  -20.9650   -9.4600 C.3     1  MOL1        0.0780
@<TRIPOS>BOND
     1    13    12    2
     2    10    11    1
     3    12    11   am
     4    12     9    1
     5     9     8    1
     6     8    14    1
     7     8     1    1
     8    14    15   am
     9    33    32    1
    10     1     7   ar
    11     1     2   ar
    12     7     5   ar
    13    29    28    1
    14    15    17    1
    15    15    16    2
    16    17    18    1
    17     2     3   ar
    18    32    24    1
    19     5     6    1
    20     5     4   ar
    21    31    26    1
    22    31    28    1
    23    26    27    1
    24    26    25    1
    25    24    23   ar
    26    24    19   ar
    27    23    22   ar
    28    28    27    1
    29    28    30    1
    30    18    19    1
    31    19    20   ar
    32     3     4   ar
    33    22    21   ar
    34    20    21   ar
    35    20    25    1
