@<TRIPOS>MOLECULE
L3024_0_out.pdbqt
 33 35 0 0 0
SMALL
GASTEIGER

@<TRIPOS>ATOM
      1 C27         9.8790  -18.2370   -9.1620 C.ar    1  MOL1       -0.0240
      2 C28         9.5910  -17.2460   -8.2060 C.ar    1  MOL1       -0.0570
      3 C29         8.5740  -16.3150   -8.4360 C.ar    1  MOL1       -0.0610
      4 C30         7.8340  -16.3620   -9.6210 C.ar    1  MOL1       -0.0480
      5 C31         8.1070  -17.3450  -10.5790 C.ar    1  MOL1        0.0180
      6 Br32        7.0800  -17.4230  -12.1910 Br      1  MOL1       -0.0510
      7 C33         9.1280  -18.2750  -10.3540 C.ar    1  MOL1       -0.0430
      8  C6        11.0280  -19.1960   -8.9370 C.3     1  MOL1        0.0630
      9  C5        10.5810  -20.3510   -8.0240 C.3     1  MOL1        0.0510
     10  C1         7.0220  -21.6930   -8.8630 C.3     1  MOL1        0.0060
     11  N2         8.1150  -20.9390   -8.2660 N.am    1  MOL1       -0.3590
     12  C3         9.4770  -21.1530   -8.6500 C.2     1  MOL1        0.2220
     13  O4         9.7600  -22.0180   -9.5230 O.2     1  MOL1       -0.2750
     14  N7        12.1730  -18.4880   -8.3530 N.am    1  MOL1       -0.3460
     15  C8        13.4350  -18.3880   -9.0150 C.2     1  MOL1        0.2580
     16  O9        13.6060  -18.9260  -10.1420 O.2     1  MOL1       -0.2710
     17 C10        14.5640  -17.6300   -8.3840 C.3     1  MOL1        0.1670
     18 O11        14.8600  -18.1590   -7.0940 O.3     1  MOL1       -0.4800
     19 C12        16.1320  -18.0550   -6.5240 C.ar    1  MOL1        0.1660
     20 C13        16.5770  -16.8440   -5.9450 C.ar    1  MOL1        0.0120
     21 C21        17.8310  -16.8070   -5.3130 C.ar    1  MOL1       -0.0540
     22 C22        18.6500  -17.9360   -5.2980 C.ar    1  MOL1       -0.0580
     23 C23        18.2300  -19.1150   -5.9140 C.ar    1  MOL1       -0.0160
     24 C24        16.9690  -19.1820   -6.5360 C.ar    1  MOL1        0.1610
     25 C14        15.7400  -15.5850   -5.9890 C.3     1  MOL1        0.0280
     26 N15        14.4720  -15.7840   -5.2570 N.3     1  MOL1       -0.2870
     27 C16        13.6700  -14.5490   -5.2180 C.3     1  MOL1        0.0640
     28 C17        13.8190  -14.4130   -3.7150 C.3     1  MOL1        0.2720
     29 F18        12.6320  -14.5770   -3.0220 F       1  MOL1       -0.2040
     30 F19        14.5480  -13.3010   -3.3250 F       1  MOL1       -0.2040
     31 C20        14.6500  -15.6790   -3.7980 C.3     1  MOL1        0.0640
     32 O25        16.5100  -20.3480   -7.1660 O.3     1  MOL1       -0.4930
     33 C26        16.0720  -21.5160   -6.4810 C.3     1  MOL1        0.0780
@<TRIPOS>BOND
     1     6     5    1
     2     5     7   ar
     3     5     4   ar
     4     7     1   ar
     5    16    15    2
     6     4     3   ar
     7    13    12    2
     8     1     8    1
     9     1     2   ar
    10    15    17    1
    11    15    14   am
    12     8    14    1
    13     8     9    1
    14    10    11    1
    15    12    11   am
    16    12     9    1
    17     3     2   ar
    18    17    18    1
    19    32    24    1
    20    32    33    1
    21    18    19    1
    22    24    19   ar
    23    24    23   ar
    24    19    20   ar
    25    25    20    1
    26    25    26    1
    27    20    21   ar
    28    23    22   ar
    29    21    22   ar
    30    26    27    1
    31    26    31    1
    32    27    28    1
    33    31    28    1
    34    28    30    1
    35    28    29    1
