@<TRIPOS>MOLECULE
L3024_0_out.pdbqt
 33 35 0 0 0
SMALL
GASTEIGER

@<TRIPOS>ATOM
      1 C27        14.8970  -17.9930   -0.6030 C.ar    1  MOL1       -0.0240
      2 C28        14.3270  -17.0370    0.2570 C.ar    1  MOL1       -0.0570
      3 C29        13.4700  -17.4350    1.2890 C.ar    1  MOL1       -0.0610
      4 C30        13.1740  -18.7880    1.4720 C.ar    1  MOL1       -0.0480
      5 C31        13.7360  -19.7500    0.6260 C.ar    1  MOL1        0.0180
      6 Br32       13.3470  -21.6040    0.8910 Br      1  MOL1       -0.0510
      7 C33        14.5890  -19.3550   -0.4100 C.ar    1  MOL1       -0.0430
      8  C6        15.7640  -17.5490   -1.7610 C.3     1  MOL1        0.0630
      9  C5        15.9460  -16.0210   -1.7270 C.3     1  MOL1        0.0510
     10  C1        18.6920  -15.3970   -4.4190 C.3     1  MOL1        0.0060
     11  N2        18.0010  -15.8580   -3.2230 N.am    1  MOL1       -0.3590
     12  C3        16.6340  -15.5210   -2.9640 C.2     1  MOL1        0.2220
     13  O4        15.9950  -14.8010   -3.7800 O.2     1  MOL1       -0.2750
     14  N7        15.1680  -17.9700   -3.0330 N.am    1  MOL1       -0.3460
     15  C8        15.7510  -18.9790   -3.8590 C.2     1  MOL1        0.2580
     16  O9        16.8250  -19.5410   -3.5140 O.2     1  MOL1       -0.2710
     17 C10        15.0860  -19.3900   -5.1380 C.3     1  MOL1        0.1670
     18 O11        15.0580  -18.3020   -6.0590 O.3     1  MOL1       -0.4800
     19 C12        15.5110  -18.4310   -7.3740 C.ar    1  MOL1        0.1660
     20 C13        14.6140  -18.7090   -8.4320 C.ar    1  MOL1        0.0120
     21 C21        15.1010  -18.7520   -9.7490 C.ar    1  MOL1       -0.0540
     22 C22        16.4600  -18.5720  -10.0080 C.ar    1  MOL1       -0.0580
     23 C23        17.3500  -18.3490   -8.9580 C.ar    1  MOL1       -0.0160
     24 C24        16.8830  -18.2810   -7.6320 C.ar    1  MOL1        0.1610
     25 C14        13.1440  -18.9620   -8.1840 C.3     1  MOL1        0.0280
     26 N15        12.3500  -17.7630   -8.5240 N.3     1  MOL1       -0.2870
     27 C16        11.4220  -17.4020   -7.4380 C.3     1  MOL1        0.0640
     28 C17        10.2000  -17.7130   -8.2800 C.3     1  MOL1        0.2720
     29 F18         9.4380  -16.5990   -8.5860 F       1  MOL1       -0.2040
     30 F19         9.4610  -18.7880   -7.8140 F       1  MOL1       -0.2040
     31 C20        11.1870  -18.0880   -9.3680 C.3     1  MOL1        0.0640
     32 O25        17.7450  -18.0600   -6.5480 O.3     1  MOL1       -0.4930
     33 C26        18.9570  -18.7730   -6.3240 C.3     1  MOL1        0.0780
@<TRIPOS>BOND
     1    22    21   ar
     2    22    23   ar
     3    21    20   ar
     4    31    26    1
     5    31    28    1
     6    23    24   ar
     7    29    28    1
     8    26    25    1
     9    26    27    1
    10    20    25    1
    11    20    19   ar
    12    28    30    1
    13    28    27    1
    14    24    19   ar
    15    24    32    1
    16    19    18    1
    17    32    33    1
    18    18    17    1
    19    17    15    1
    20    10    11    1
    21    15    16    2
    22    15    14   am
    23    13    12    2
    24    11    12   am
    25    14     8    1
    26    12     9    1
    27     8     9    1
    28     8     1    1
    29     1     7   ar
    30     1     2   ar
    31     7     5   ar
    32     2     3   ar
    33     5     6    1
    34     5     4   ar
    35     3     4   ar
