@<TRIPOS>MOLECULE
L3024_0_out.pdbqt
 33 35 0 0 0
SMALL
GASTEIGER

@<TRIPOS>ATOM
      1 C27        15.4420  -17.1880   -1.6390 C.ar    1  MOL1       -0.0240
      2 C28        15.0090  -18.4820   -1.2980 C.ar    1  MOL1       -0.0570
      3 C29        14.2420  -18.6920   -0.1470 C.ar    1  MOL1       -0.0610
      4 C30        13.9010  -17.6140    0.6750 C.ar    1  MOL1       -0.0480
      5 C31        14.3220  -16.3210    0.3460 C.ar    1  MOL1        0.0180
      6 Br32       13.8360  -14.8430    1.4590 Br      1  MOL1       -0.0510
      7 C33        15.0930  -16.1080   -0.8020 C.ar    1  MOL1       -0.0430
      8  C6        16.3310  -16.9790   -2.8450 C.3     1  MOL1        0.0630
      9  C5        16.6250  -15.4800   -3.0310 C.3     1  MOL1        0.0510
     10  C1        20.3020  -15.1560   -4.2760 C.3     1  MOL1        0.0060
     11  N2        18.8720  -15.4220   -4.2300 N.am    1  MOL1       -0.3590
     12  C3        18.1020  -15.2060   -3.0430 C.2     1  MOL1        0.2220
     13  O4        18.6600  -14.7790   -1.9960 O.2     1  MOL1       -0.2750
     14  N7        15.6970  -17.5340   -4.0460 N.am    1  MOL1       -0.3460
     15  C8        16.3830  -18.4060   -4.9460 C.2     1  MOL1        0.2580
     16  O9        17.5840  -18.7220   -4.7320 O.2     1  MOL1       -0.2710
     17 C10        15.6790  -18.9650   -6.1460 C.3     1  MOL1        0.1670
     18 O11        14.2700  -18.9890   -5.9310 O.3     1  MOL1       -0.4800
     19 C12        13.3590  -18.9990   -6.9900 C.ar    1  MOL1        0.1660
     20 C13        12.8870  -17.7940   -7.5600 C.ar    1  MOL1        0.0120
     21 C21        12.0330  -17.8520   -8.6750 C.ar    1  MOL1       -0.0540
     22 C22        11.6160  -19.0820   -9.1840 C.ar    1  MOL1       -0.0580
     23 C23        12.0430  -20.2690   -8.5890 C.ar    1  MOL1       -0.0160
     24 C24        12.9140  -20.2360   -7.4840 C.ar    1  MOL1        0.1610
     25 C14        13.2740  -16.4430   -7.0020 C.3     1  MOL1        0.0280
     26 N15        14.0390  -15.6720   -8.0030 N.3     1  MOL1       -0.2870
     27 C16        15.3970  -16.2140   -8.1820 C.3     1  MOL1        0.0640
     28 C17        16.0480  -14.9700   -7.6090 C.3     1  MOL1        0.2720
     29 F18        16.7850  -14.2520   -8.5350 F       1  MOL1       -0.2040
     30 F19        16.7110  -15.1890   -6.4120 F       1  MOL1       -0.2040
     31 C20        14.6340  -14.4530   -7.4290 C.3     1  MOL1        0.0640
     32 O25        13.3660  -21.4060   -6.8560 O.3     1  MOL1       -0.4930
     33 C26        12.6120  -22.6100   -6.7590 C.3     1  MOL1        0.0780
@<TRIPOS>BOND
     1    22    21   ar
     2    22    23   ar
     3    21    20   ar
     4    23    24   ar
     5    29    28    1
     6    27    26    1
     7    27    28    1
     8    26    31    1
     9    26    25    1
    10    28    31    1
    11    28    30    1
    12    20    25    1
    13    20    19   ar
    14    24    19   ar
    15    24    32    1
    16    19    18    1
    17    32    33    1
    18    17    18    1
    19    17    15    1
    20    15    16    2
    21    15    14   am
    22    10    11    1
    23    11    12   am
    24    14     8    1
    25    12     9    1
    26    12    13    2
    27     9     8    1
    28     8     1    1
    29     1     2   ar
    30     1     7   ar
    31     2     3   ar
    32     7     5   ar
    33     3     4   ar
    34     5     4   ar
    35     5     6    1
