@<TRIPOS>MOLECULE
L3024_0_out.pdbqt
 33 35 0 0 0
SMALL
GASTEIGER

@<TRIPOS>ATOM
      1 C27        15.5090  -17.7240   -5.1460 C.ar    1  MOL1       -0.0240
      2 C28        15.7400  -18.5030   -3.9970 C.ar    1  MOL1       -0.0570
      3 C29        15.4900  -17.9780   -2.7250 C.ar    1  MOL1       -0.0610
      4 C30        15.0090  -16.6730   -2.5860 C.ar    1  MOL1       -0.0480
      5 C31        14.7720  -15.8890   -3.7200 C.ar    1  MOL1        0.0180
      6 Br32       14.0930  -14.1100   -3.5300 Br      1  MOL1       -0.0510
      7 C33        15.0250  -16.4080   -4.9940 C.ar    1  MOL1       -0.0430
      8  C6        15.8490  -18.2730   -6.5140 C.3     1  MOL1        0.0630
      9  C5        17.1730  -17.6640   -7.0120 C.3     1  MOL1        0.0510
     10  C1        19.8160  -20.5020   -7.3740 C.3     1  MOL1        0.0060
     11  N2        18.6870  -19.6180   -7.6240 N.am    1  MOL1       -0.3590
     12  C3        18.3380  -18.5650   -6.7200 C.2     1  MOL1        0.2220
     13  O4        19.0120  -18.3840   -5.6690 O.2     1  MOL1       -0.2750
     14  N7        14.7640  -17.9910   -7.4600 N.am    1  MOL1       -0.3460
     15  C8        14.1700  -19.0060   -8.2730 C.2     1  MOL1        0.2580
     16  O9        14.5800  -20.1950   -8.2060 O.2     1  MOL1       -0.2710
     17 C10        13.0450  -18.6680   -9.2040 C.3     1  MOL1        0.1670
     18 O11        11.7950  -19.0520   -8.6360 O.3     1  MOL1       -0.4800
     19 C12        10.6530  -18.2540   -8.7480 C.ar    1  MOL1        0.1660
     20 C13         9.6610  -18.5300   -9.7170 C.ar    1  MOL1        0.0120
     21 C21         8.4930  -17.7500   -9.7420 C.ar    1  MOL1       -0.0540
     22 C22         8.3330  -16.6850   -8.8550 C.ar    1  MOL1       -0.0580
     23 C23         9.3350  -16.3830   -7.9340 C.ar    1  MOL1       -0.0160
     24 C24        10.5060  -17.1630   -7.8760 C.ar    1  MOL1        0.1610
     25 C14         9.8230  -19.6420  -10.7290 C.3     1  MOL1        0.0280
     26 N15         8.8060  -20.6910  -10.5100 N.3     1  MOL1       -0.2870
     27 C16         8.8220  -21.1810   -9.1220 C.3     1  MOL1        0.0640
     28 C17         9.2880  -22.5620   -9.5370 C.3     1  MOL1        0.2720
     29 F18         8.3490  -23.5550   -9.3170 F       1  MOL1       -0.2040
     30 F19        10.5590  -22.8810   -9.0870 F       1  MOL1       -0.2040
     31 C20         9.2710  -22.0170  -10.9520 C.3     1  MOL1        0.0640
     32 O25        11.5370  -16.8920   -6.9660 O.3     1  MOL1       -0.4930
     33 C26        11.7690  -15.6230   -6.3650 C.3     1  MOL1        0.0780
@<TRIPOS>BOND
     1    31    26    1
     2    31    28    1
     3    25    26    1
     4    25    20    1
     5    26    27    1
     6    21    20   ar
     7    21    22   ar
     8    20    19   ar
     9    28    29    1
    10    28    27    1
    11    28    30    1
    12    17    18    1
    13    17    15    1
    14    22    23   ar
    15    19    18    1
    16    19    24   ar
    17    15    16    2
    18    15    14   am
    19    23    24   ar
    20    24    32    1
    21    11    10    1
    22    11    12   am
    23    14     8    1
    24     9    12    1
    25     9     8    1
    26    32    33    1
    27    12    13    2
    28     8     1    1
    29     1     7   ar
    30     1     2   ar
    31     7     5   ar
    32     2     3   ar
    33     5     6    1
    34     5     4   ar
    35     3     4   ar
