@<TRIPOS>MOLECULE
complex1_L4_ligand.pdb
 49 51 0 0 0
SMALL
GASTEIGER

@<TRIPOS>ATOM
      1  N1        -9.5810   -9.3670   21.2720 N.ar    1  3IH1       -0.0726
      2  C1        -9.6220  -10.1850   19.9300 C.ar    1  3IH1        0.1774
      3  C2       -10.3690  -11.1490   20.2050 C.ar    1  3IH1        0.0627
      4  C3       -10.9520  -11.1250   21.4410 C.ar    1  3IH1        0.1550
      5  O1       -10.5140  -10.0590   22.1560 O.2     1  3IH1       -0.3576
      6  C4        -8.6450   -9.2530   19.1760 C.2     1  3IH1        0.2862
      7  O2        -7.6870   -9.7290   18.5450 O.2     1  3IH1       -0.2666
      8  N2        -8.9010   -7.9420   19.2050 N.am    1  3IH1       -0.1926
      9  C5        -8.0100   -6.9950   18.5200 C.3     1  3IH1        0.1732
     10  C6        -8.7920   -5.7720   18.0780 C.3     1  3IH1        0.0334
     11  C7        -6.8380   -6.5760   19.4180 C.2     1  3IH1        0.2616
     12  O3        -7.0170   -6.3180   20.6070 O.2     1  3IH1       -0.2715
     13  N3        -5.6390   -6.5180   18.8440 N.am    1  3IH1       -0.1963
     14  C8        -4.4500   -6.1260   19.6000 C.3     1  3IH1        0.1727
     15  C9        -3.3460   -7.2010   19.5200 C.3     1  3IH1        0.0290
     16  C10       -2.1390   -6.7620   20.3440 C.3     1  3IH1        0.0023
     17  C11       -3.8920   -8.5420   20.0030 C.3     1  3IH1        0.0023
     18  C12       -3.8650   -4.8010   19.1050 C.2     1  3IH1        0.2616
     19  O4        -3.5530   -4.6370   17.9210 O.2     1  3IH1       -0.2715
     20  N4        -3.7230   -3.8550   20.0260 N.am    1  3IH1       -0.1963
     21  C13       -3.1610   -2.5530   19.6940 C.3     1  3IH1        0.1728
     22  C14       -3.4090   -1.5690   20.8400 C.3     1  3IH1        0.0311
     23  C15       -4.3140   -0.3690   20.5410 C.3     1  3IH1        0.0022
     24  C16       -5.3750   -0.7400   19.5050 C.3     1  3IH1        0.0001
     25  C17       -4.9730    0.0960   21.8480 C.3     1  3IH1        0.0001
     26  C19        0.2360   -2.4370   18.0720 C.3     1  3IH1        0.0964
     27  C20        1.1400   -1.2340   17.9200 C.3     1  3IH1        0.0333
     28  C21        1.5820   -1.1050   19.4090 C.3     1  3IH1        0.1113
     29  C22        3.0060   -0.7490   19.4660 C.2     1  3IH1        0.3174
     30  O6         3.9660   -0.1950   18.9520 O.2     1  3IH1       -0.2501
     31  O7         3.0560   -0.9240   20.7970 O.3     1  3IH1       -0.4435
     32  C23        4.0920   -0.5100   21.7170 C.3     1  3IH1        0.2350
     33  C24        4.2350   -0.6690   23.2190 C.ar    1  3IH1        0.0213
     34  C25        1.0620   -3.3850   16.9200 C.3     1  3IH1        0.0309
     35  C26        0.3750   -4.7850   16.7660 C.3     1  3IH1        0.0817
     36  C27        1.0980   -5.9040   17.5580 C.3     1  3IH1        0.0326
     37  C28        0.9950   -7.1780   16.7020 C.3     1  3IH1        0.1156
     38  N6         0.7550   -6.6320   15.3700 N.am    1  3IH1       -0.2054
     39  C29        0.4170   -5.3290   15.3580 C.2     1  3IH1        0.2410
     40  O8         0.5850   -4.6300   14.3530 O.2     1  3IH1       -0.2734
     41  C30        3.2740   -1.3960   23.9970 C.ar    1  3IH1       -0.0007
     42  C31        3.4330   -1.5330   25.4100 C.ar    1  3IH1       -0.0002
     43  C32        4.5540   -0.9410   26.0690 C.ar    1  3IH1       -0.0000
     44  C33        5.5240   -0.2080   25.3120 C.ar    1  3IH1       -0.0002
     45  C34        5.3620   -0.0760   23.8930 C.ar    1  3IH1       -0.0007
     46  C35      -11.9400  -12.1220   21.9670 C.3     1  3IH1        0.0754
     47  C18       -1.6650   -2.7400   19.4540 C.2     1  3IH1        0.2612
     48  O5        -0.9550   -3.3230   20.2830 O.2     1  3IH1       -0.2715
     49  N5        -1.1790   -2.2720   18.3170 N.am    1  3IH1       -0.2057
@<TRIPOS>BOND
     1    40    39    2
     2    39    38   am
     3    39    35    1
     4    38    37    1
     5    37    36    1
     6    35    34    1
     7    35    36    1
     8    34    26    1
     9    27    26    1
    10    27    28    1
    11    19    18    2
    12    26    49    1
    13    10     9    1
    14    49    47   am
    15     9     8    1
    16     9    11    1
    17     7     6    2
    18    13    11   am
    19    13    14    1
    20    30    29    2
    21    18    14    1
    22    18    20   am
    23     6     8   am
    24     6     2    1
    25    28    29    1
    26    11    12    2
    27    47    21    1
    28    47    48    2
    29    29    31    1
    30    24    23    1
    31    15    14    1
    32    15    17    1
    33    15    16    1
    34    21    20    1
    35    21    22    1
    36     2     3   ar
    37     2     1   ar
    38     3     4   ar
    39    23    22    1
    40    23    25    1
    41    31    32    1
    42     1     5   ar
    43     4    46    1
    44     4     5   ar
    45    32    33    1
    46    33    45   ar
    47    33    41   ar
    48    45    44   ar
    49    41    42   ar
    50    44    43   ar
    51    42    43   ar
