@<TRIPOS>MOLECULE
complex2_L3_ligand.pdb
 33 36 0 0 0
SMALL
GASTEIGER

@<TRIPOS>ATOM
      1  O1         3.1650  -14.4380   -8.4240 O.2     4  SWH4        0.0000
      2  C2         4.1530  -14.6710   -9.0980 C.2     4  SWH4        0.0000
      3  N3         4.1930  -14.8630  -10.4240 N.am    4  SWH4        0.0000
      4  C4         2.9580  -14.8000  -11.2200 C.3     4  SWH4        0.0000
      5  C5         2.7700  -13.4070  -11.7670 C.ar    4  SWH4        0.0000
      6  C6         3.3910  -13.0260  -12.9520 C.ar    4  SWH4        0.0000
      7  C7         3.2130  -11.7400  -13.4500 C.ar    4  SWH4        0.0000
      8  C8         2.4110  -10.8320  -12.7620 C.ar    4  SWH4        0.0000
      9  F9         2.2330   -9.5780  -13.2350 F       4  SWH4        0.0000
     10  C10        1.7880  -11.2180  -11.5810 C.ar    4  SWH4        0.0000
     11  C11        1.9680  -12.5010  -11.0830 C.ar    4  SWH4        0.0000
     12  C12        5.3590  -15.1190  -11.0030 C.2     4  SWH4        0.0000
     13  O13        5.4750  -15.3070  -12.2040 O.2     4  SWH4        0.0000
     14  S14        5.8180  -14.8350   -8.5050 S.3     4  SWH4        0.0000
     15  C15        6.5240  -15.1430  -10.1070 C.2     4  SWH4        0.0000
     16  C16        7.8130  -15.3470  -10.5060 C.2     4  SWH4        0.0000
     17  C17        9.0540  -15.3720   -9.7100 C.ar    4  SWH4        0.0000
     18  C18       10.2120  -15.8350  -10.3600 C.ar    4  SWH4        0.0000
     19  C19       11.4260  -15.8640   -9.7050 C.ar    4  SWH4        0.0000
     20  C20       11.5280  -15.4380   -8.3810 C.ar    4  SWH4        0.0000
     21  O21       12.7700  -15.4800   -7.8090 O.3     4  SWH4        0.0000
     22  C22       12.9860  -15.3950   -6.3930 C.3     4  SWH4        0.0000
     23  C23       12.8410  -13.9780   -5.8900 C.ar    4  SWH4        0.0000
     24  C24       12.9920  -12.8880   -6.7420 C.ar    4  SWH4        0.0000
     25  C25       12.8250  -11.5980   -6.2620 C.ar    4  SWH4        0.0000
     26  C26       12.5160  -11.3900   -4.9100 C.ar    4  SWH4        0.0000
     27  B27       12.2710   -9.9350   -4.3660 B       4  SWH4        0.0000
     28  O28       13.1940   -9.0620   -4.8820 O.3     4  SWH4        0.0000
     29  O29       12.3260   -9.9240   -2.9960 O.3     4  SWH4        0.0000
     30  C30       12.3440  -12.4910   -4.0630 C.ar    4  SWH4        0.0000
     31  C31       12.5180  -13.7720   -4.5550 C.ar    4  SWH4        0.0000
     32  C32       10.3840  -14.9520   -7.7280 C.ar    4  SWH4        0.0000
     33  C33        9.1610  -14.9070   -8.3830 C.ar    4  SWH4        0.0000
@<TRIPOS>BOND
     1     7     6   ar
     2     7     8   ar
     3     9     8    1
     4     6     5   ar
     5     8    10   ar
     6    13    12    2
     7     5     4    1
     8     5    11   ar
     9    10    11   ar
    10     4     3    1
    11    12     3   am
    12    12    15    1
    13    16    15    2
    14    16    17    1
    15     3     2   am
    16    18    17   ar
    17    18    19   ar
    18    15    14    1
    19    17    33   ar
    20    19    20   ar
    21     2    14    1
    22     2     1    2
    23    33    32   ar
    24    20    21    1
    25    20    32   ar
    26    21    22    1
    27    24    25   ar
    28    24    23   ar
    29    22    23    1
    30    25    26   ar
    31    23    31   ar
    32    26    27    1
    33    26    30   ar
    34    28    27    1
    35    31    30   ar
    36    27    29    1
