@<TRIPOS>MOLECULE
complex1_L1_ligand.pdb
 29 30 0 0 0
SMALL
GASTEIGER

@<TRIPOS>ATOM
      1  N          2.4410   15.5860  -11.1050 N.3     1  ALA1       -0.1231
      2  CA         1.7190   14.5430  -10.3210 C.3     1  ALA1        0.1694
      3  C          2.0830   13.1580  -10.8530 C.2     1  ALA1        0.2592
      4  O          1.8730   12.8730  -12.0330 O.2     1  ALA1       -0.2718
      5  CB         0.2050   14.7770  -10.4270 C.3     1  ALA1        0.0304
      6  N          2.6460   12.3150   -9.9920 N.am    2  ALA2       -0.1966
      7  CA         3.0500   10.9630  -10.3690 C.3     2  ALA2        0.1713
      8  C          2.2550    9.9400   -9.5550 C.2     2  ALA2        0.2458
      9  O          2.2380   10.0060   -8.3260 O.2     2  ALA2       -0.2730
     10  CB         4.5420   10.7710  -10.1100 C.3     2  ALA2        0.0333
     11  N          1.5300    9.0260  -10.2250 N.am    3  PRO3       -0.2716
     12  CA         0.7470    7.9990   -9.5350 C.3     3  PRO3        0.1535
     13  C          1.6940    7.0390   -8.8120 C.2     3  PRO3        0.2595
     14  O          2.6880    6.5830   -9.3880 O.2     3  PRO3       -0.2716
     15  CB         0.0220    7.3050  -10.6860 C.3     3  PRO3        0.0310
     16  CG        -0.0820    8.3500  -11.7310 C.3     3  PRO3        0.0237
     17  CD         1.2700    8.9820  -11.6720 C.3     3  PRO3        0.0939
     18  C          1.5680    4.4160   -6.6170 C.3     4  PHE4        0.1722
     19  O          2.2980    3.4930   -6.2320 O.3     4  PHE4       -0.2213
     20  CA         2.1870    5.8280   -6.7440 C.3     4  PHE4        0.1299
     21  N          1.3840    6.7340   -7.5560 N.am    4  PHE4       -0.2028
     22  CB         2.3800    6.4080   -5.3380 C.3     4  PHE4        0.0506
     23  CG         3.1980    7.6750   -5.2800 C.ar    4  PHE4       -0.0204
     24  CD1        4.0140    8.0660   -6.3430 C.ar    4  PHE4       -0.0042
     25  CD2        3.1580    8.4660   -4.1320 C.ar    4  PHE4       -0.0042
     26  CE1        4.7840    9.2220   -6.2690 C.ar    4  PHE4       -0.0003
     27  CE2        3.9250    9.6280   -4.0460 C.ar    4  PHE4       -0.0003
     28  CZ         4.7400   10.0040   -5.1260 C.ar    4  PHE4       -0.0000
     29  C1         0.8710    3.9150   -7.8990 C.3     5  0QE5        0.0374
@<TRIPOS>BOND
     1     4     3    2
     2    16    17    1
     3    16    15    1
     4    17    11    1
     5     1     2    1
     6     3     2    1
     7     3     6   am
     8    15    12    1
     9     5     2    1
    10     7    10    1
    11     7     6    1
    12     7     8    1
    13    11     8   am
    14    11    12    1
    15     8     9    2
    16    12    13    1
    17    14    13    2
    18    13    21   am
    19    29    18    1
    20    21    20    1
    21    20    18    1
    22    20    22    1
    23    18    19    1
    24    24    26   ar
    25    24    23   ar
    26    26    28   ar
    27    22    23    1
    28    23    25   ar
    29    28    27   ar
    30    25    27   ar
