@<TRIPOS>MOLECULE
complex1_L2_ligand.pdb
 49 55 0 0 0
SMALL
GASTEIGER

@<TRIPOS>ATOM
      1  O6       -12.6490   12.5900    7.9350 O.2     6  OHH6       -0.2699
      2  P1        -6.0170    5.6920    9.4120 P.3     6  OHH6        0.1282
      3  O1        -5.9350    5.1150   10.8820 O.3     6  OHH6       -0.3566
      4  O3        -6.0870    4.4300    8.5570 O.2     6  OHH6       -0.4593
      5  O2        -4.7740    6.4500    9.0850 O.3     6  OHH6       -0.3566
      6  C9        -7.3740    6.6950    8.9390 C.3     6  OHH6        0.1358
      7  O4        -9.0720    5.8090   10.3830 O.2     6  OHH6       -0.2905
      8  C10       -8.6640    5.9410    9.2610 C.2     6  OHH6        0.1837
      9  C17       -9.0570    4.2100    4.3830 C.ar    6  OHH6        0.0000
     10  C16       -9.8620    3.6740    3.3000 C.ar    6  OHH6        0.0000
     11  C15      -11.3040    3.4120    3.5030 C.ar    6  OHH6        0.0000
     12  C14      -11.9980    3.6700    4.7620 C.ar    6  OHH6        0.0000
     13  C4B      -11.2110    4.2160    5.8960 C.ar    6  OHH6        0.0001
     14  C8B       -9.6540    4.5120    5.7180 C.ar    6  OHH6        0.0001
     15  C18       -8.8460    5.0510    6.7940 C.ar    6  OHH6        0.0030
     16  C11       -9.4900    5.3400    8.0950 C.ar    6  OHH6        0.0398
     17  C12      -10.9840    5.0680    8.3090 C.ar    6  OHH6        0.0564
     18  C13      -11.8090    4.5080    7.1970 C.ar    6  OHH6        0.0046
     19  O5       -12.0400    4.3120   10.3070 O.2     6  OHH6       -0.2699
     20  C19      -11.8460    5.3150    9.5970 C.2     6  OHH6        0.2491
     21  C1        -7.4130   10.9760   10.7120 C.ar    6  OHH6       -0.0000
     22  C2        -7.3200    9.8860   11.6410 C.ar    6  OHH6       -0.0003
     23  C3        -7.2990    8.4530   11.1760 C.ar    6  OHH6       -0.0034
     24  C4        -7.3780    8.0380    9.7420 C.ar    6  OHH6       -0.0083
     25  C4A       -7.4960    9.2210    8.6500 C.ar    6  OHH6       -0.0031
     26  C8A       -7.5010   10.7640    9.2650 C.ar    6  OHH6       -0.0003
     27  C8        -7.5950   11.9420    8.3380 C.ar    6  OHH6       -0.0000
     28  C7        -7.6870   11.7630    6.8960 C.ar    6  OHH6       -0.0000
     29  C6        -7.6930   10.3820    6.2880 C.ar    6  OHH6       -0.0000
     30  C5        -7.5990    9.1770    7.1570 C.ar    6  OHH6       -0.0003
     31  N1       -12.3510    6.6410    9.8820 N.am    6  OHH6       -0.2758
     32  C20      -13.1840    6.8950   11.1140 C.3     6  OHH6        0.1151
     33  C24      -12.4830    9.0820    6.7170 C.3     6  OHH6        0.0954
     34  N2       -12.2540   10.3610    7.5480 N.am    6  OHH6       -0.2760
     35  C23      -11.1520   10.2190    8.6020 C.3     6  OHH6        0.0954
     36  C22      -11.5440    9.0530    9.5990 C.3     6  OHH6        0.0414
     37  C21      -11.9670    7.7350    8.7990 C.3     6  OHH6        0.0791
     38  C25      -13.0370    8.0170    7.7010 C.3     6  OHH6        0.0414
     39  C26      -12.9770   11.5590    7.3040 C.2     6  OHH6        0.2490
     40  C29      -15.1840   12.9570    4.2580 C.ar    6  OHH6        0.0001
     41  C28      -14.1250   12.7840    5.2570 C.ar    6  OHH6        0.0045
     42  C27      -14.1570   11.6720    6.2630 C.ar    6  OHH6        0.0536
     43  C34      -15.3170   10.7150    6.2310 C.ar    6  OHH6        0.0045
     44  C8C      -16.3710   10.8410    5.2700 C.ar    6  OHH6        0.0001
     45  C4C      -16.3090   12.0230    4.2260 C.ar    6  OHH6        0.0000
     46  C30      -17.3810   12.1380    3.2490 C.ar    6  OHH6        0.0000
     47  C31      -18.4870   11.1620    3.2580 C.ar    6  OHH6        0.0000
     48  C32      -18.5490   10.0620    4.2390 C.ar    6  OHH6        0.0000
     49  C33      -17.4950    9.9000    5.2390 C.ar    6  OHH6        0.0000
@<TRIPOS>BOND
     1    46    47   ar
     2    46    45   ar
     3    47    48   ar
     4    10    11   ar
     5    10     9   ar
     6    11    12   ar
     7    45    40   ar
     8    45    44   ar
     9    48    49   ar
    10    40    41   ar
    11     9    14   ar
    12    12    13   ar
    13    49    44   ar
    14    41    42   ar
    15    44    43   ar
    16    14    13   ar
    17    14    15   ar
    18    13    18   ar
    19    43    42   ar
    20    42    39    1
    21    29    28   ar
    22    29    30   ar
    23    33    34    1
    24    33    38    1
    25    15    16   ar
    26    28    27   ar
    27    30    25   ar
    28    18    17   ar
    29    39    34   am
    30    39     1    2
    31    34    35    1
    32    38    37    1
    33    16    17   ar
    34    16     8    1
    35    17    20    1
    36    27    26   ar
    37     4     2    2
    38    35    36    1
    39    25    26   ar
    40    25    24   ar
    41    37    36    1
    42    37    31    1
    43     6     8    1
    44     6     2    1
    45     6    24    1
    46     5     2    1
    47     8     7    2
    48    26    21   ar
    49     2     3    1
    50    20    31   am
    51    20    19    2
    52    24    23   ar
    53    31    32    1
    54    21    22   ar
    55    23    22   ar
